18
prism
O     -1.98809642     1.07259854     -.17008272
H     -2.65432215     1.75406534     -.29457427
H     -1.12410682     1.54133723     -.16808174
O     -1.01210730    -1.16226196     1.41783859
H     -1.00300319    -1.51670753      .50465897
H     -1.58053367     -.38562387     1.30626941
O      1.45258039     -.19062642     1.46779070
H       .54824824     -.59584398     1.56580550
H      1.93276785     -.40081928     2.27333290
O      -.94561210    -1.39646518    -1.35471457
H     -1.43675949     -.56245450    -1.30670239
H      -.02948938    -1.11988543    -1.51719299
O      1.78328499     -.40814713    -1.26763066
H      2.55647293     -.82448997    -1.65880940
H      1.89247505     -.49176846     -.30058670
O       .57696197     2.02004218     -.11301203
H      1.02072837     1.61701116     -.87156630
H       .94398492     1.51061477      .62833682

