48
#Ice 1h; PBE-D3; Brandenburg, Maas, and Grimme JCP 2015
O          0.98448        2.72147        0.94946
O          5.33985        2.72147        0.94946
O          3.17691        6.48614        0.94995
O          7.53219        6.48621        0.94995
O          0.99826        5.23272        1.83572
O          5.35363        5.23272        1.83572
O          3.16268        1.46828        1.83593
O          7.51805        1.46828        1.83586
O          1.02217        5.26539        4.49897
O          5.37745        5.26539        4.49897
O          3.18772        1.49981        4.49953
O          7.54318        1.49966        4.49939
O          1.01000        2.75359        5.38423
O          5.36555        2.75367        5.38430
O          3.19938        6.51774        5.38430
O          7.55466        6.51766        5.38423
H          1.00966        3.66727        1.29729
H          1.81507        2.26553        1.29338
H          8.34929        1.94561        1.52395
H          0.99278        2.73880        6.39202
H          5.36503        3.66727        1.29729
H          3.99384        1.94554        1.52402
H          6.17053        2.26561        1.29338
H          5.34824        2.73887        6.39209
H          1.82950        5.71013        1.52423
H          4.00750        6.02975        1.29353
H          3.20366        7.43209        1.29729
H          3.18285        6.50279        6.39209
H          8.36278        6.02982        1.29346
H          6.18487        5.71020        1.52430
H          7.55903        7.43216        1.29722
H          7.53822        6.50271        6.39202
H          1.01462        5.24864        2.84350
H          5.36999        5.24864        2.84357
H          3.17939        1.48398        2.84372
H          7.53476        1.48390        2.84357
H          0.99739        4.31937        4.84644
H          2.36781        6.04072        5.07282
H          0.19093        5.72065        4.84247
H          5.35267        4.31937        4.84644
H          4.54621        5.72072        4.84254
H          6.72309        6.04065        5.07274
H          2.35719        1.95658        4.84275
H          4.53441        2.27583        5.07289
H          3.15989        0.55379        4.84658
H          0.17886        2.27575        5.07289
H          6.71256        1.95643        4.84268
H          7.51526        0.55357        4.84651
