36
#ice iii unit cell; PBE-D3; Brandenburg, Maas, and Grimme JCP 2015
O 1.44735 5.89553 0.59337
H 1.69245 5.25196 1.32401
H 0.4635 5.76884 0.43537
O 1.59372 2.03544 0.71739
H 0.77215 2.23964 0.1775
H 1.59309 1.04049 0.82859
O 2.08895 4.01851 2.42305
H 1.8841 3.19704 1.88322
H 3.08385 4.01674 2.53486
O 2.9305 0.84078 3.83303
H 3.11912 0.02712 4.3966
H 3.11985 1.60352 4.46203
O 3.28281 5.35533 5.53835
H 2.51974 5.54364 6.16741
H 4.09655 5.54291 6.10185
O 3.473 2.67549 5.71224
H 3.34591 3.65899 5.55288
H 2.82835 2.43077 6.44207
O 4.77539 3.87166 2.30114
H 5.41998 4.1164 3.03096
H 4.90247 2.88822 2.14177
O 4.96557 1.19187 2.12738
H 4.15184 1.00431 2.69088
H 5.72865 1.00352 2.75637
O 5.31792 5.70645 0.422
H 5.12852 4.94366 1.05092
H 5.12925 6.52006 0.98557
O 6.15937 2.52857 5.83408
H 6.36422 3.35009 5.29425
H 5.16447 2.53034 5.94596
O 0.10447 4.51166 4.12843
H 0.10511 5.50662 4.23963
H 0.92604 4.30745 3.58853
O 0.25084 0.65157 4.00447
H 1.23476 0.77825 3.84654
H 0.00576 1.29509 4.73512
