972

O 0.04934 2.02068 0.49352
H 0.77657 1.63238 1.05406
H -0.2828900000000001 1.28427 -0.09352000000000027
O 5.22151 7.87718 0.92021
H 4.78265 8.67994 0.51431
H 5.84939 8.18695 1.631
O 2.01507 7.06558 0.00866
H 2.24804 7.73127 0.71661
H 1.24857 6.56987 0.41242
O 4.04217 5.95266 2.47059
H 4.3744 6.68907 1.88355
H 3.31495 6.34096 3.03113
O 2.07644 0.90776 1.98573
H 1.84347 0.24207 2.69368
H 2.84295 1.40347 2.38949
O 7.05304 0.09616 2.89728
H 6.42515 -0.21361000000000008 3.60807
H 7.49189 -0.7065999999999999 2.49138
O 6.10659 4.89443 3.94548
H 6.33956 4.22874 3.23753
H 5.34008 5.39014 3.54172
O 6.16796 3.07891 1.96841
H 5.93499 3.7446 1.26046
H 6.93446 2.5832 1.56465
O 8.13369 6.00735 1.48355
H 8.46592 5.27094 2.07059
H 7.40646 5.61905 0.92301
O 2.96152 3.89051 1.05686
H 3.40038 4.69327 1.46276
H 2.33364 4.20028 0.34607
O 1.12999 4.08283 3.03393
H 0.69114 3.28007 3.43983
H 1.75788 3.77306 2.32314
O 4.14086 1.96599 3.46062
H 3.80863 2.7024 4.0476600000000005
H 4.86808 2.35429 2.90008
O 0.04934 2.02068 4.44766
H 0.77657 1.63238 5.0082
H -0.2828900000000001 1.28427 3.86062
O 5.22151 7.87718 4.87435
H 4.78265 8.67994 4.468450000000001
H 5.84939 8.18695 5.58514
O 2.01507 7.06558 3.9628
H 2.24804 7.73127 4.67075
H 1.24857 6.56987 4.36656
O 4.04217 5.95266 6.42473
H 4.3744 6.68907 5.83769
H 3.31495 6.34096 6.98527
O 2.07644 0.90776 5.93987
H 1.84347 0.24207 6.64782
H 2.84295 1.40347 6.34363
O 7.05304 0.09616 6.85142
H 6.42515 -0.21361000000000008 7.56221
H 7.49189 -0.7065999999999999 6.44552
O 6.10659 4.89443 7.8996200000000005
H 6.33956 4.22874 7.19167
H 5.34008 5.39014 7.49586
O 6.16796 3.07891 5.92255
H 5.93499 3.7446 5.2146
H 6.93446 2.5832 5.51879
O 8.13369 6.00735 5.43769
H 8.46592 5.27094 6.02473
H 7.40646 5.61905 4.87715
O 2.96152 3.89051 5.011
H 3.40038 4.69327 5.4169
H 2.33364 4.20028 4.30021
O 1.12999 4.08283 6.9880700000000004
H 0.69114 3.28007 7.39397
H 1.75788 3.77306 6.27728
O 4.14086 1.96599 7.41476
H 3.80863 2.7024 8.001800000000001
H 4.86808 2.35429 6.85422
O 0.04934 2.02068 8.4018
H 0.77657 1.63238 8.962340000000001
H -0.2828900000000001 1.28427 7.81476
O 5.22151 7.87718 8.82849
H 4.78265 8.67994 8.42259
H 5.84939 8.18695 9.53928
O 2.01507 7.06558 7.91694
H 2.24804 7.73127 8.62489
H 1.24857 6.56987 8.3207
O 4.04217 5.95266 10.378870000000001
H 4.3744 6.68907 9.791830000000001
H 3.31495 6.34096 10.93941
O 2.07644 0.90776 9.89401
H 1.84347 0.24207 10.60196
H 2.84295 1.40347 10.29777
O 7.05304 0.09616 10.80556
H 6.42515 -0.21361000000000008 11.516350000000001
H 7.49189 -0.7065999999999999 10.39966
O 6.10659 4.89443 11.853760000000001
H 6.33956 4.22874 11.14581
H 5.34008 5.39014 11.450000000000001
O 6.16796 3.07891 9.87669
H 5.93499 3.7446 9.16874
H 6.93446 2.5832 9.47293
O 8.13369 6.00735 9.39183
H 8.46592 5.27094 9.97887
H 7.40646 5.61905 8.831290000000001
O 2.96152 3.89051 8.96514
H 3.40038 4.69327 9.37104
H 2.33364 4.20028 8.25435
O 1.12999 4.08283 10.94221
H 0.69114 3.28007 11.34811
H 1.75788 3.77306 10.23142
O 4.14086 1.96599 11.3689
H 3.80863 2.7024 11.955940000000002
H 4.86808 2.35429 10.80836
O 0.04934 9.99402 0.49352
H 0.77657 9.60572 1.05406
H -0.2828900000000001 9.25761 -0.09352000000000027
O 5.22151 15.85052 0.92021
H 4.78265 16.653280000000002 0.51431
H 5.84939 16.16029 1.631
O 2.01507 15.038920000000001 0.00866
H 2.24804 15.70461 0.71661
H 1.24857 14.54321 0.41242
O 4.04217 13.926 2.47059
H 4.3744 14.662410000000001 1.88355
H 3.31495 14.3143 3.03113
O 2.07644 8.8811 1.98573
H 1.84347 8.21541 2.69368
H 2.84295 9.37681 2.38949
O 7.05304 8.0695 2.89728
H 6.42515 7.75973 3.60807
H 7.49189 7.26674 2.49138
O 6.10659 12.86777 3.94548
H 6.33956 12.20208 3.23753
H 5.34008 13.36348 3.54172
O 6.16796 11.05225 1.96841
H 5.93499 11.71794 1.26046
H 6.93446 10.55654 1.56465
O 8.13369 13.98069 1.48355
H 8.46592 13.24428 2.07059
H 7.40646 13.59239 0.92301
O 2.96152 11.86385 1.05686
H 3.40038 12.66661 1.46276
H 2.33364 12.17362 0.34607
O 1.12999 12.056170000000002 3.03393
H 0.69114 11.25341 3.43983
H 1.75788 11.746400000000001 2.32314
O 4.14086 9.93933 3.46062
H 3.80863 10.675740000000001 4.0476600000000005
H 4.86808 10.327630000000001 2.90008
O 0.04934 9.99402 4.44766
H 0.77657 9.60572 5.0082
H -0.2828900000000001 9.25761 3.86062
O 5.22151 15.85052 4.87435
H 4.78265 16.653280000000002 4.468450000000001
H 5.84939 16.16029 5.58514
O 2.01507 15.038920000000001 3.9628
H 2.24804 15.70461 4.67075
H 1.24857 14.54321 4.36656
O 4.04217 13.926 6.42473
H 4.3744 14.662410000000001 5.83769
H 3.31495 14.3143 6.98527
O 2.07644 8.8811 5.93987
H 1.84347 8.21541 6.64782
H 2.84295 9.37681 6.34363
O 7.05304 8.0695 6.85142
H 6.42515 7.75973 7.56221
H 7.49189 7.26674 6.44552
O 6.10659 12.86777 7.8996200000000005
H 6.33956 12.20208 7.19167
H 5.34008 13.36348 7.49586
O 6.16796 11.05225 5.92255
H 5.93499 11.71794 5.2146
H 6.93446 10.55654 5.51879
O 8.13369 13.98069 5.43769
H 8.46592 13.24428 6.02473
H 7.40646 13.59239 4.87715
O 2.96152 11.86385 5.011
H 3.40038 12.66661 5.4169
H 2.33364 12.17362 4.30021
O 1.12999 12.056170000000002 6.9880700000000004
H 0.69114 11.25341 7.39397
H 1.75788 11.746400000000001 6.27728
O 4.14086 9.93933 7.41476
H 3.80863 10.675740000000001 8.001800000000001
H 4.86808 10.327630000000001 6.85422
O 0.04934 9.99402 8.4018
H 0.77657 9.60572 8.962340000000001
H -0.2828900000000001 9.25761 7.81476
O 5.22151 15.85052 8.82849
H 4.78265 16.653280000000002 8.42259
H 5.84939 16.16029 9.53928
O 2.01507 15.038920000000001 7.91694
H 2.24804 15.70461 8.62489
H 1.24857 14.54321 8.3207
O 4.04217 13.926 10.378870000000001
H 4.3744 14.662410000000001 9.791830000000001
H 3.31495 14.3143 10.93941
O 2.07644 8.8811 9.89401
H 1.84347 8.21541 10.60196
H 2.84295 9.37681 10.29777
O 7.05304 8.0695 10.80556
H 6.42515 7.75973 11.516350000000001
H 7.49189 7.26674 10.39966
O 6.10659 12.86777 11.853760000000001
H 6.33956 12.20208 11.14581
H 5.34008 13.36348 11.450000000000001
O 6.16796 11.05225 9.87669
H 5.93499 11.71794 9.16874
H 6.93446 10.55654 9.47293
O 8.13369 13.98069 9.39183
H 8.46592 13.24428 9.97887
H 7.40646 13.59239 8.831290000000001
O 2.96152 11.86385 8.96514
H 3.40038 12.66661 9.37104
H 2.33364 12.17362 8.25435
O 1.12999 12.056170000000002 10.94221
H 0.69114 11.25341 11.34811
H 1.75788 11.746400000000001 10.23142
O 4.14086 9.93933 11.3689
H 3.80863 10.675740000000001 11.955940000000002
H 4.86808 10.327630000000001 10.80836
O 0.04934 17.96736 0.49352
H 0.77657 17.579060000000002 1.05406
H -0.2828900000000001 17.23095 -0.09352000000000027
O 5.22151 23.82386 0.92021
H 4.78265 24.626620000000003 0.51431
H 5.84939 24.13363 1.631
O 2.01507 23.01226 0.00866
H 2.24804 23.677950000000003 0.71661
H 1.24857 22.516550000000002 0.41242
O 4.04217 21.899340000000002 2.47059
H 4.3744 22.63575 1.88355
H 3.31495 22.28764 3.03113
O 2.07644 16.85444 1.98573
H 1.84347 16.18875 2.69368
H 2.84295 17.35015 2.38949
O 7.05304 16.04284 2.89728
H 6.42515 15.733070000000001 3.60807
H 7.49189 15.24008 2.49138
O 6.10659 20.84111 3.94548
H 6.33956 20.175420000000003 3.23753
H 5.34008 21.33682 3.54172
O 6.16796 19.02559 1.96841
H 5.93499 19.69128 1.26046
H 6.93446 18.529880000000002 1.56465
O 8.13369 21.95403 1.48355
H 8.46592 21.21762 2.07059
H 7.40646 21.565730000000002 0.92301
O 2.96152 19.83719 1.05686
H 3.40038 20.63995 1.46276
H 2.33364 20.14696 0.34607
O 1.12999 20.029510000000002 3.03393
H 0.69114 19.22675 3.43983
H 1.75788 19.71974 2.32314
O 4.14086 17.912670000000002 3.46062
H 3.80863 18.64908 4.0476600000000005
H 4.86808 18.30097 2.90008
O 0.04934 17.96736 4.44766
H 0.77657 17.579060000000002 5.0082
H -0.2828900000000001 17.23095 3.86062
O 5.22151 23.82386 4.87435
H 4.78265 24.626620000000003 4.468450000000001
H 5.84939 24.13363 5.58514
O 2.01507 23.01226 3.9628
H 2.24804 23.677950000000003 4.67075
H 1.24857 22.516550000000002 4.36656
O 4.04217 21.899340000000002 6.42473
H 4.3744 22.63575 5.83769
H 3.31495 22.28764 6.98527
O 2.07644 16.85444 5.93987
H 1.84347 16.18875 6.64782
H 2.84295 17.35015 6.34363
O 7.05304 16.04284 6.85142
H 6.42515 15.733070000000001 7.56221
H 7.49189 15.24008 6.44552
O 6.10659 20.84111 7.8996200000000005
H 6.33956 20.175420000000003 7.19167
H 5.34008 21.33682 7.49586
O 6.16796 19.02559 5.92255
H 5.93499 19.69128 5.2146
H 6.93446 18.529880000000002 5.51879
O 8.13369 21.95403 5.43769
H 8.46592 21.21762 6.02473
H 7.40646 21.565730000000002 4.87715
O 2.96152 19.83719 5.011
H 3.40038 20.63995 5.4169
H 2.33364 20.14696 4.30021
O 1.12999 20.029510000000002 6.9880700000000004
H 0.69114 19.22675 7.39397
H 1.75788 19.71974 6.27728
O 4.14086 17.912670000000002 7.41476
H 3.80863 18.64908 8.001800000000001
H 4.86808 18.30097 6.85422
O 0.04934 17.96736 8.4018
H 0.77657 17.579060000000002 8.962340000000001
H -0.2828900000000001 17.23095 7.81476
O 5.22151 23.82386 8.82849
H 4.78265 24.626620000000003 8.42259
H 5.84939 24.13363 9.53928
O 2.01507 23.01226 7.91694
H 2.24804 23.677950000000003 8.62489
H 1.24857 22.516550000000002 8.3207
O 4.04217 21.899340000000002 10.378870000000001
H 4.3744 22.63575 9.791830000000001
H 3.31495 22.28764 10.93941
O 2.07644 16.85444 9.89401
H 1.84347 16.18875 10.60196
H 2.84295 17.35015 10.29777
O 7.05304 16.04284 10.80556
H 6.42515 15.733070000000001 11.516350000000001
H 7.49189 15.24008 10.39966
O 6.10659 20.84111 11.853760000000001
H 6.33956 20.175420000000003 11.14581
H 5.34008 21.33682 11.450000000000001
O 6.16796 19.02559 9.87669
H 5.93499 19.69128 9.16874
H 6.93446 18.529880000000002 9.47293
O 8.13369 21.95403 9.39183
H 8.46592 21.21762 9.97887
H 7.40646 21.565730000000002 8.831290000000001
O 2.96152 19.83719 8.96514
H 3.40038 20.63995 9.37104
H 2.33364 20.14696 8.25435
O 1.12999 20.029510000000002 10.94221
H 0.69114 19.22675 11.34811
H 1.75788 19.71974 10.23142
O 4.14086 17.912670000000002 11.3689
H 3.80863 18.64908 11.955940000000002
H 4.86808 18.30097 10.80836
O 8.232370000000001 2.02068 0.49352
H 8.9596 1.63238 1.05406
H 7.90014 1.28427 -0.09352000000000027
O 13.40454 7.87718 0.92021
H 12.96568 8.67994 0.51431
H 14.03242 8.18695 1.631
O 10.1981 7.06558 0.00866
H 10.43107 7.73127 0.71661
H 9.4316 6.56987 0.41242
O 12.225200000000001 5.95266 2.47059
H 12.55743 6.68907 1.88355
H 11.49798 6.34096 3.03113
O 10.25947 0.90776 1.98573
H 10.0265 0.24207 2.69368
H 11.02598 1.40347 2.38949
O 15.236070000000002 0.09616 2.89728
H 14.60818 -0.21361000000000008 3.60807
H 15.67492 -0.7065999999999999 2.49138
O 14.28962 4.89443 3.94548
H 14.522590000000001 4.22874 3.23753
H 13.52311 5.39014 3.54172
O 14.35099 3.07891 1.96841
H 14.118020000000001 3.7446 1.26046
H 15.11749 2.5832 1.56465
O 16.31672 6.00735 1.48355
H 16.64895 5.27094 2.07059
H 15.589490000000001 5.61905 0.92301
O 11.14455 3.89051 1.05686
H 11.58341 4.69327 1.46276
H 10.516670000000001 4.20028 0.34607
O 9.31302 4.08283 3.03393
H 8.874170000000001 3.28007 3.43983
H 9.94091 3.77306 2.32314
O 12.32389 1.96599 3.46062
H 11.99166 2.7024 4.0476600000000005
H 13.051110000000001 2.35429 2.90008
O 8.232370000000001 2.02068 4.44766
H 8.9596 1.63238 5.0082
H 7.90014 1.28427 3.86062
O 13.40454 7.87718 4.87435
H 12.96568 8.67994 4.468450000000001
H 14.03242 8.18695 5.58514
O 10.1981 7.06558 3.9628
H 10.43107 7.73127 4.67075
H 9.4316 6.56987 4.36656
O 12.225200000000001 5.95266 6.42473
H 12.55743 6.68907 5.83769
H 11.49798 6.34096 6.98527
O 10.25947 0.90776 5.93987
H 10.0265 0.24207 6.64782
H 11.02598 1.40347 6.34363
O 15.236070000000002 0.09616 6.85142
H 14.60818 -0.21361000000000008 7.56221
H 15.67492 -0.7065999999999999 6.44552
O 14.28962 4.89443 7.8996200000000005
H 14.522590000000001 4.22874 7.19167
H 13.52311 5.39014 7.49586
O 14.35099 3.07891 5.92255
H 14.118020000000001 3.7446 5.2146
H 15.11749 2.5832 5.51879
O 16.31672 6.00735 5.43769
H 16.64895 5.27094 6.02473
H 15.589490000000001 5.61905 4.87715
O 11.14455 3.89051 5.011
H 11.58341 4.69327 5.4169
H 10.516670000000001 4.20028 4.30021
O 9.31302 4.08283 6.9880700000000004
H 8.874170000000001 3.28007 7.39397
H 9.94091 3.77306 6.27728
O 12.32389 1.96599 7.41476
H 11.99166 2.7024 8.001800000000001
H 13.051110000000001 2.35429 6.85422
O 8.232370000000001 2.02068 8.4018
H 8.9596 1.63238 8.962340000000001
H 7.90014 1.28427 7.81476
O 13.40454 7.87718 8.82849
H 12.96568 8.67994 8.42259
H 14.03242 8.18695 9.53928
O 10.1981 7.06558 7.91694
H 10.43107 7.73127 8.62489
H 9.4316 6.56987 8.3207
O 12.225200000000001 5.95266 10.378870000000001
H 12.55743 6.68907 9.791830000000001
H 11.49798 6.34096 10.93941
O 10.25947 0.90776 9.89401
H 10.0265 0.24207 10.60196
H 11.02598 1.40347 10.29777
O 15.236070000000002 0.09616 10.80556
H 14.60818 -0.21361000000000008 11.516350000000001
H 15.67492 -0.7065999999999999 10.39966
O 14.28962 4.89443 11.853760000000001
H 14.522590000000001 4.22874 11.14581
H 13.52311 5.39014 11.450000000000001
O 14.35099 3.07891 9.87669
H 14.118020000000001 3.7446 9.16874
H 15.11749 2.5832 9.47293
O 16.31672 6.00735 9.39183
H 16.64895 5.27094 9.97887
H 15.589490000000001 5.61905 8.831290000000001
O 11.14455 3.89051 8.96514
H 11.58341 4.69327 9.37104
H 10.516670000000001 4.20028 8.25435
O 9.31302 4.08283 10.94221
H 8.874170000000001 3.28007 11.34811
H 9.94091 3.77306 10.23142
O 12.32389 1.96599 11.3689
H 11.99166 2.7024 11.955940000000002
H 13.051110000000001 2.35429 10.80836
O 8.232370000000001 9.99402 0.49352
H 8.9596 9.60572 1.05406
H 7.90014 9.25761 -0.09352000000000027
O 13.40454 15.85052 0.92021
H 12.96568 16.653280000000002 0.51431
H 14.03242 16.16029 1.631
O 10.1981 15.038920000000001 0.00866
H 10.43107 15.70461 0.71661
H 9.4316 14.54321 0.41242
O 12.225200000000001 13.926 2.47059
H 12.55743 14.662410000000001 1.88355
H 11.49798 14.3143 3.03113
O 10.25947 8.8811 1.98573
H 10.0265 8.21541 2.69368
H 11.02598 9.37681 2.38949
O 15.236070000000002 8.0695 2.89728
H 14.60818 7.75973 3.60807
H 15.67492 7.26674 2.49138
O 14.28962 12.86777 3.94548
H 14.522590000000001 12.20208 3.23753
H 13.52311 13.36348 3.54172
O 14.35099 11.05225 1.96841
H 14.118020000000001 11.71794 1.26046
H 15.11749 10.55654 1.56465
O 16.31672 13.98069 1.48355
H 16.64895 13.24428 2.07059
H 15.589490000000001 13.59239 0.92301
O 11.14455 11.86385 1.05686
H 11.58341 12.66661 1.46276
H 10.516670000000001 12.17362 0.34607
O 9.31302 12.056170000000002 3.03393
H 8.874170000000001 11.25341 3.43983
H 9.94091 11.746400000000001 2.32314
O 12.32389 9.93933 3.46062
H 11.99166 10.675740000000001 4.0476600000000005
H 13.051110000000001 10.327630000000001 2.90008
O 8.232370000000001 9.99402 4.44766
H 8.9596 9.60572 5.0082
H 7.90014 9.25761 3.86062
O 13.40454 15.85052 4.87435
H 12.96568 16.653280000000002 4.468450000000001
H 14.03242 16.16029 5.58514
O 10.1981 15.038920000000001 3.9628
H 10.43107 15.70461 4.67075
H 9.4316 14.54321 4.36656
O 12.225200000000001 13.926 6.42473
H 12.55743 14.662410000000001 5.83769
H 11.49798 14.3143 6.98527
O 10.25947 8.8811 5.93987
H 10.0265 8.21541 6.64782
H 11.02598 9.37681 6.34363
O 15.236070000000002 8.0695 6.85142
H 14.60818 7.75973 7.56221
H 15.67492 7.26674 6.44552
O 14.28962 12.86777 7.8996200000000005
H 14.522590000000001 12.20208 7.19167
H 13.52311 13.36348 7.49586
O 14.35099 11.05225 5.92255
H 14.118020000000001 11.71794 5.2146
H 15.11749 10.55654 5.51879
O 16.31672 13.98069 5.43769
H 16.64895 13.24428 6.02473
H 15.589490000000001 13.59239 4.87715
O 11.14455 11.86385 5.011
H 11.58341 12.66661 5.4169
H 10.516670000000001 12.17362 4.30021
O 9.31302 12.056170000000002 6.9880700000000004
H 8.874170000000001 11.25341 7.39397
H 9.94091 11.746400000000001 6.27728
O 12.32389 9.93933 7.41476
H 11.99166 10.675740000000001 8.001800000000001
H 13.051110000000001 10.327630000000001 6.85422
O 8.232370000000001 9.99402 8.4018
H 8.9596 9.60572 8.962340000000001
H 7.90014 9.25761 7.81476
O 13.40454 15.85052 8.82849
H 12.96568 16.653280000000002 8.42259
H 14.03242 16.16029 9.53928
O 10.1981 15.038920000000001 7.91694
H 10.43107 15.70461 8.62489
H 9.4316 14.54321 8.3207
O 12.225200000000001 13.926 10.378870000000001
H 12.55743 14.662410000000001 9.791830000000001
H 11.49798 14.3143 10.93941
O 10.25947 8.8811 9.89401
H 10.0265 8.21541 10.60196
H 11.02598 9.37681 10.29777
O 15.236070000000002 8.0695 10.80556
H 14.60818 7.75973 11.516350000000001
H 15.67492 7.26674 10.39966
O 14.28962 12.86777 11.853760000000001
H 14.522590000000001 12.20208 11.14581
H 13.52311 13.36348 11.450000000000001
O 14.35099 11.05225 9.87669
H 14.118020000000001 11.71794 9.16874
H 15.11749 10.55654 9.47293
O 16.31672 13.98069 9.39183
H 16.64895 13.24428 9.97887
H 15.589490000000001 13.59239 8.831290000000001
O 11.14455 11.86385 8.96514
H 11.58341 12.66661 9.37104
H 10.516670000000001 12.17362 8.25435
O 9.31302 12.056170000000002 10.94221
H 8.874170000000001 11.25341 11.34811
H 9.94091 11.746400000000001 10.23142
O 12.32389 9.93933 11.3689
H 11.99166 10.675740000000001 11.955940000000002
H 13.051110000000001 10.327630000000001 10.80836
O 8.232370000000001 17.96736 0.49352
H 8.9596 17.579060000000002 1.05406
H 7.90014 17.23095 -0.09352000000000027
O 13.40454 23.82386 0.92021
H 12.96568 24.626620000000003 0.51431
H 14.03242 24.13363 1.631
O 10.1981 23.01226 0.00866
H 10.43107 23.677950000000003 0.71661
H 9.4316 22.516550000000002 0.41242
O 12.225200000000001 21.899340000000002 2.47059
H 12.55743 22.63575 1.88355
H 11.49798 22.28764 3.03113
O 10.25947 16.85444 1.98573
H 10.0265 16.18875 2.69368
H 11.02598 17.35015 2.38949
O 15.236070000000002 16.04284 2.89728
H 14.60818 15.733070000000001 3.60807
H 15.67492 15.24008 2.49138
O 14.28962 20.84111 3.94548
H 14.522590000000001 20.175420000000003 3.23753
H 13.52311 21.33682 3.54172
O 14.35099 19.02559 1.96841
H 14.118020000000001 19.69128 1.26046
H 15.11749 18.529880000000002 1.56465
O 16.31672 21.95403 1.48355
H 16.64895 21.21762 2.07059
H 15.589490000000001 21.565730000000002 0.92301
O 11.14455 19.83719 1.05686
H 11.58341 20.63995 1.46276
H 10.516670000000001 20.14696 0.34607
O 9.31302 20.029510000000002 3.03393
H 8.874170000000001 19.22675 3.43983
H 9.94091 19.71974 2.32314
O 12.32389 17.912670000000002 3.46062
H 11.99166 18.64908 4.0476600000000005
H 13.051110000000001 18.30097 2.90008
O 8.232370000000001 17.96736 4.44766
H 8.9596 17.579060000000002 5.0082
H 7.90014 17.23095 3.86062
O 13.40454 23.82386 4.87435
H 12.96568 24.626620000000003 4.468450000000001
H 14.03242 24.13363 5.58514
O 10.1981 23.01226 3.9628
H 10.43107 23.677950000000003 4.67075
H 9.4316 22.516550000000002 4.36656
O 12.225200000000001 21.899340000000002 6.42473
H 12.55743 22.63575 5.83769
H 11.49798 22.28764 6.98527
O 10.25947 16.85444 5.93987
H 10.0265 16.18875 6.64782
H 11.02598 17.35015 6.34363
O 15.236070000000002 16.04284 6.85142
H 14.60818 15.733070000000001 7.56221
H 15.67492 15.24008 6.44552
O 14.28962 20.84111 7.8996200000000005
H 14.522590000000001 20.175420000000003 7.19167
H 13.52311 21.33682 7.49586
O 14.35099 19.02559 5.92255
H 14.118020000000001 19.69128 5.2146
H 15.11749 18.529880000000002 5.51879
O 16.31672 21.95403 5.43769
H 16.64895 21.21762 6.02473
H 15.589490000000001 21.565730000000002 4.87715
O 11.14455 19.83719 5.011
H 11.58341 20.63995 5.4169
H 10.516670000000001 20.14696 4.30021
O 9.31302 20.029510000000002 6.9880700000000004
H 8.874170000000001 19.22675 7.39397
H 9.94091 19.71974 6.27728
O 12.32389 17.912670000000002 7.41476
H 11.99166 18.64908 8.001800000000001
H 13.051110000000001 18.30097 6.85422
O 8.232370000000001 17.96736 8.4018
H 8.9596 17.579060000000002 8.962340000000001
H 7.90014 17.23095 7.81476
O 13.40454 23.82386 8.82849
H 12.96568 24.626620000000003 8.42259
H 14.03242 24.13363 9.53928
O 10.1981 23.01226 7.91694
H 10.43107 23.677950000000003 8.62489
H 9.4316 22.516550000000002 8.3207
O 12.225200000000001 21.899340000000002 10.378870000000001
H 12.55743 22.63575 9.791830000000001
H 11.49798 22.28764 10.93941
O 10.25947 16.85444 9.89401
H 10.0265 16.18875 10.60196
H 11.02598 17.35015 10.29777
O 15.236070000000002 16.04284 10.80556
H 14.60818 15.733070000000001 11.516350000000001
H 15.67492 15.24008 10.39966
O 14.28962 20.84111 11.853760000000001
H 14.522590000000001 20.175420000000003 11.14581
H 13.52311 21.33682 11.450000000000001
O 14.35099 19.02559 9.87669
H 14.118020000000001 19.69128 9.16874
H 15.11749 18.529880000000002 9.47293
O 16.31672 21.95403 9.39183
H 16.64895 21.21762 9.97887
H 15.589490000000001 21.565730000000002 8.831290000000001
O 11.14455 19.83719 8.96514
H 11.58341 20.63995 9.37104
H 10.516670000000001 20.14696 8.25435
O 9.31302 20.029510000000002 10.94221
H 8.874170000000001 19.22675 11.34811
H 9.94091 19.71974 10.23142
O 12.32389 17.912670000000002 11.3689
H 11.99166 18.64908 11.955940000000002
H 13.051110000000001 18.30097 10.80836
O 16.4154 2.02068 0.49352
H 17.14263 1.63238 1.05406
H 16.083170000000003 1.28427 -0.09352000000000027
O 21.58757 7.87718 0.92021
H 21.14871 8.67994 0.51431
H 22.21545 8.18695 1.631
O 18.381130000000002 7.06558 0.00866
H 18.6141 7.73127 0.71661
H 17.614630000000002 6.56987 0.41242
O 20.40823 5.95266 2.47059
H 20.74046 6.68907 1.88355
H 19.68101 6.34096 3.03113
O 18.442500000000003 0.90776 1.98573
H 18.20953 0.24207 2.69368
H 19.20901 1.40347 2.38949
O 23.4191 0.09616 2.89728
H 22.79121 -0.21361000000000008 3.60807
H 23.857950000000002 -0.7065999999999999 2.49138
O 22.47265 4.89443 3.94548
H 22.70562 4.22874 3.23753
H 21.70614 5.39014 3.54172
O 22.53402 3.07891 1.96841
H 22.30105 3.7446 1.26046
H 23.30052 2.5832 1.56465
O 24.49975 6.00735 1.48355
H 24.83198 5.27094 2.07059
H 23.77252 5.61905 0.92301
O 19.32758 3.89051 1.05686
H 19.766440000000003 4.69327 1.46276
H 18.6997 4.20028 0.34607
O 17.49605 4.08283 3.03393
H 17.0572 3.28007 3.43983
H 18.12394 3.77306 2.32314
O 20.50692 1.96599 3.46062
H 20.174690000000002 2.7024 4.0476600000000005
H 21.23414 2.35429 2.90008
O 16.4154 2.02068 4.44766
H 17.14263 1.63238 5.0082
H 16.083170000000003 1.28427 3.86062
O 21.58757 7.87718 4.87435
H 21.14871 8.67994 4.468450000000001
H 22.21545 8.18695 5.58514
O 18.381130000000002 7.06558 3.9628
H 18.6141 7.73127 4.67075
H 17.614630000000002 6.56987 4.36656
O 20.40823 5.95266 6.42473
H 20.74046 6.68907 5.83769
H 19.68101 6.34096 6.98527
O 18.442500000000003 0.90776 5.93987
H 18.20953 0.24207 6.64782
H 19.20901 1.40347 6.34363
O 23.4191 0.09616 6.85142
H 22.79121 -0.21361000000000008 7.56221
H 23.857950000000002 -0.7065999999999999 6.44552
O 22.47265 4.89443 7.8996200000000005
H 22.70562 4.22874 7.19167
H 21.70614 5.39014 7.49586
O 22.53402 3.07891 5.92255
H 22.30105 3.7446 5.2146
H 23.30052 2.5832 5.51879
O 24.49975 6.00735 5.43769
H 24.83198 5.27094 6.02473
H 23.77252 5.61905 4.87715
O 19.32758 3.89051 5.011
H 19.766440000000003 4.69327 5.4169
H 18.6997 4.20028 4.30021
O 17.49605 4.08283 6.9880700000000004
H 17.0572 3.28007 7.39397
H 18.12394 3.77306 6.27728
O 20.50692 1.96599 7.41476
H 20.174690000000002 2.7024 8.001800000000001
H 21.23414 2.35429 6.85422
O 16.4154 2.02068 8.4018
H 17.14263 1.63238 8.962340000000001
H 16.083170000000003 1.28427 7.81476
O 21.58757 7.87718 8.82849
H 21.14871 8.67994 8.42259
H 22.21545 8.18695 9.53928
O 18.381130000000002 7.06558 7.91694
H 18.6141 7.73127 8.62489
H 17.614630000000002 6.56987 8.3207
O 20.40823 5.95266 10.378870000000001
H 20.74046 6.68907 9.791830000000001
H 19.68101 6.34096 10.93941
O 18.442500000000003 0.90776 9.89401
H 18.20953 0.24207 10.60196
H 19.20901 1.40347 10.29777
O 23.4191 0.09616 10.80556
H 22.79121 -0.21361000000000008 11.516350000000001
H 23.857950000000002 -0.7065999999999999 10.39966
O 22.47265 4.89443 11.853760000000001
H 22.70562 4.22874 11.14581
H 21.70614 5.39014 11.450000000000001
O 22.53402 3.07891 9.87669
H 22.30105 3.7446 9.16874
H 23.30052 2.5832 9.47293
O 24.49975 6.00735 9.39183
H 24.83198 5.27094 9.97887
H 23.77252 5.61905 8.831290000000001
O 19.32758 3.89051 8.96514
H 19.766440000000003 4.69327 9.37104
H 18.6997 4.20028 8.25435
O 17.49605 4.08283 10.94221
H 17.0572 3.28007 11.34811
H 18.12394 3.77306 10.23142
O 20.50692 1.96599 11.3689
H 20.174690000000002 2.7024 11.955940000000002
H 21.23414 2.35429 10.80836
O 16.4154 9.99402 0.49352
H 17.14263 9.60572 1.05406
H 16.083170000000003 9.25761 -0.09352000000000027
O 21.58757 15.85052 0.92021
H 21.14871 16.653280000000002 0.51431
H 22.21545 16.16029 1.631
O 18.381130000000002 15.038920000000001 0.00866
H 18.6141 15.70461 0.71661
H 17.614630000000002 14.54321 0.41242
O 20.40823 13.926 2.47059
H 20.74046 14.662410000000001 1.88355
H 19.68101 14.3143 3.03113
O 18.442500000000003 8.8811 1.98573
H 18.20953 8.21541 2.69368
H 19.20901 9.37681 2.38949
O 23.4191 8.0695 2.89728
H 22.79121 7.75973 3.60807
H 23.857950000000002 7.26674 2.49138
O 22.47265 12.86777 3.94548
H 22.70562 12.20208 3.23753
H 21.70614 13.36348 3.54172
O 22.53402 11.05225 1.96841
H 22.30105 11.71794 1.26046
H 23.30052 10.55654 1.56465
O 24.49975 13.98069 1.48355
H 24.83198 13.24428 2.07059
H 23.77252 13.59239 0.92301
O 19.32758 11.86385 1.05686
H 19.766440000000003 12.66661 1.46276
H 18.6997 12.17362 0.34607
O 17.49605 12.056170000000002 3.03393
H 17.0572 11.25341 3.43983
H 18.12394 11.746400000000001 2.32314
O 20.50692 9.93933 3.46062
H 20.174690000000002 10.675740000000001 4.0476600000000005
H 21.23414 10.327630000000001 2.90008
O 16.4154 9.99402 4.44766
H 17.14263 9.60572 5.0082
H 16.083170000000003 9.25761 3.86062
O 21.58757 15.85052 4.87435
H 21.14871 16.653280000000002 4.468450000000001
H 22.21545 16.16029 5.58514
O 18.381130000000002 15.038920000000001 3.9628
H 18.6141 15.70461 4.67075
H 17.614630000000002 14.54321 4.36656
O 20.40823 13.926 6.42473
H 20.74046 14.662410000000001 5.83769
H 19.68101 14.3143 6.98527
O 18.442500000000003 8.8811 5.93987
H 18.20953 8.21541 6.64782
H 19.20901 9.37681 6.34363
O 23.4191 8.0695 6.85142
H 22.79121 7.75973 7.56221
H 23.857950000000002 7.26674 6.44552
O 22.47265 12.86777 7.8996200000000005
H 22.70562 12.20208 7.19167
H 21.70614 13.36348 7.49586
O 22.53402 11.05225 5.92255
H 22.30105 11.71794 5.2146
H 23.30052 10.55654 5.51879
O 24.49975 13.98069 5.43769
H 24.83198 13.24428 6.02473
H 23.77252 13.59239 4.87715
O 19.32758 11.86385 5.011
H 19.766440000000003 12.66661 5.4169
H 18.6997 12.17362 4.30021
O 17.49605 12.056170000000002 6.9880700000000004
H 17.0572 11.25341 7.39397
H 18.12394 11.746400000000001 6.27728
O 20.50692 9.93933 7.41476
H 20.174690000000002 10.675740000000001 8.001800000000001
H 21.23414 10.327630000000001 6.85422
O 16.4154 9.99402 8.4018
H 17.14263 9.60572 8.962340000000001
H 16.083170000000003 9.25761 7.81476
O 21.58757 15.85052 8.82849
H 21.14871 16.653280000000002 8.42259
H 22.21545 16.16029 9.53928
O 18.381130000000002 15.038920000000001 7.91694
H 18.6141 15.70461 8.62489
H 17.614630000000002 14.54321 8.3207
O 20.40823 13.926 10.378870000000001
H 20.74046 14.662410000000001 9.791830000000001
H 19.68101 14.3143 10.93941
O 18.442500000000003 8.8811 9.89401
H 18.20953 8.21541 10.60196
H 19.20901 9.37681 10.29777
O 23.4191 8.0695 10.80556
H 22.79121 7.75973 11.516350000000001
H 23.857950000000002 7.26674 10.39966
O 22.47265 12.86777 11.853760000000001
H 22.70562 12.20208 11.14581
H 21.70614 13.36348 11.450000000000001
O 22.53402 11.05225 9.87669
H 22.30105 11.71794 9.16874
H 23.30052 10.55654 9.47293
O 24.49975 13.98069 9.39183
H 24.83198 13.24428 9.97887
H 23.77252 13.59239 8.831290000000001
O 19.32758 11.86385 8.96514
H 19.766440000000003 12.66661 9.37104
H 18.6997 12.17362 8.25435
O 17.49605 12.056170000000002 10.94221
H 17.0572 11.25341 11.34811
H 18.12394 11.746400000000001 10.23142
O 20.50692 9.93933 11.3689
H 20.174690000000002 10.675740000000001 11.955940000000002
H 21.23414 10.327630000000001 10.80836
O 16.4154 17.96736 0.49352
H 17.14263 17.579060000000002 1.05406
H 16.083170000000003 17.23095 -0.09352000000000027
O 21.58757 23.82386 0.92021
H 21.14871 24.626620000000003 0.51431
H 22.21545 24.13363 1.631
O 18.381130000000002 23.01226 0.00866
H 18.6141 23.677950000000003 0.71661
H 17.614630000000002 22.516550000000002 0.41242
O 20.40823 21.899340000000002 2.47059
H 20.74046 22.63575 1.88355
H 19.68101 22.28764 3.03113
O 18.442500000000003 16.85444 1.98573
H 18.20953 16.18875 2.69368
H 19.20901 17.35015 2.38949
O 23.4191 16.04284 2.89728
H 22.79121 15.733070000000001 3.60807
H 23.857950000000002 15.24008 2.49138
O 22.47265 20.84111 3.94548
H 22.70562 20.175420000000003 3.23753
H 21.70614 21.33682 3.54172
O 22.53402 19.02559 1.96841
H 22.30105 19.69128 1.26046
H 23.30052 18.529880000000002 1.56465
O 24.49975 21.95403 1.48355
H 24.83198 21.21762 2.07059
H 23.77252 21.565730000000002 0.92301
O 19.32758 19.83719 1.05686
H 19.766440000000003 20.63995 1.46276
H 18.6997 20.14696 0.34607
O 17.49605 20.029510000000002 3.03393
H 17.0572 19.22675 3.43983
H 18.12394 19.71974 2.32314
O 20.50692 17.912670000000002 3.46062
H 20.174690000000002 18.64908 4.0476600000000005
H 21.23414 18.30097 2.90008
O 16.4154 17.96736 4.44766
H 17.14263 17.579060000000002 5.0082
H 16.083170000000003 17.23095 3.86062
O 21.58757 23.82386 4.87435
H 21.14871 24.626620000000003 4.468450000000001
H 22.21545 24.13363 5.58514
O 18.381130000000002 23.01226 3.9628
H 18.6141 23.677950000000003 4.67075
H 17.614630000000002 22.516550000000002 4.36656
O 20.40823 21.899340000000002 6.42473
H 20.74046 22.63575 5.83769
H 19.68101 22.28764 6.98527
O 18.442500000000003 16.85444 5.93987
H 18.20953 16.18875 6.64782
H 19.20901 17.35015 6.34363
O 23.4191 16.04284 6.85142
H 22.79121 15.733070000000001 7.56221
H 23.857950000000002 15.24008 6.44552
O 22.47265 20.84111 7.8996200000000005
H 22.70562 20.175420000000003 7.19167
H 21.70614 21.33682 7.49586
O 22.53402 19.02559 5.92255
H 22.30105 19.69128 5.2146
H 23.30052 18.529880000000002 5.51879
O 24.49975 21.95403 5.43769
H 24.83198 21.21762 6.02473
H 23.77252 21.565730000000002 4.87715
O 19.32758 19.83719 5.011
H 19.766440000000003 20.63995 5.4169
H 18.6997 20.14696 4.30021
O 17.49605 20.029510000000002 6.9880700000000004
H 17.0572 19.22675 7.39397
H 18.12394 19.71974 6.27728
O 20.50692 17.912670000000002 7.41476
H 20.174690000000002 18.64908 8.001800000000001
H 21.23414 18.30097 6.85422
O 16.4154 17.96736 8.4018
H 17.14263 17.579060000000002 8.962340000000001
H 16.083170000000003 17.23095 7.81476
O 21.58757 23.82386 8.82849
H 21.14871 24.626620000000003 8.42259
H 22.21545 24.13363 9.53928
O 18.381130000000002 23.01226 7.91694
H 18.6141 23.677950000000003 8.62489
H 17.614630000000002 22.516550000000002 8.3207
O 20.40823 21.899340000000002 10.378870000000001
H 20.74046 22.63575 9.791830000000001
H 19.68101 22.28764 10.93941
O 18.442500000000003 16.85444 9.89401
H 18.20953 16.18875 10.60196
H 19.20901 17.35015 10.29777
O 23.4191 16.04284 10.80556
H 22.79121 15.733070000000001 11.516350000000001
H 23.857950000000002 15.24008 10.39966
O 22.47265 20.84111 11.853760000000001
H 22.70562 20.175420000000003 11.14581
H 21.70614 21.33682 11.450000000000001
O 22.53402 19.02559 9.87669
H 22.30105 19.69128 9.16874
H 23.30052 18.529880000000002 9.47293
O 24.49975 21.95403 9.39183
H 24.83198 21.21762 9.97887
H 23.77252 21.565730000000002 8.831290000000001
O 19.32758 19.83719 8.96514
H 19.766440000000003 20.63995 9.37104
H 18.6997 20.14696 8.25435
O 17.49605 20.029510000000002 10.94221
H 17.0572 19.22675 11.34811
H 18.12394 19.71974 10.23142
O 20.50692 17.912670000000002 11.3689
H 20.174690000000002 18.64908 11.955940000000002
H 21.23414 18.30097 10.80836