30

O 1.51251 1.48366 1.36886
H 1.48682 2.24601 2.01423
H 1.52298 0.69983 1.97947
O 1.47348 3.14471 3.5083
H 1.52557 4.14098 3.55282
H 2.25725 2.76301 3.9874
O 3.18832 1.51727 4.86257
H 4.18277 1.52236 4.95297
H 2.75418 1.51673 5.76729
O 1.51155 5.8659 3.5577
H 2.32002 6.3454500000000005 3.99546
H 0.78016 6.2856000000000005 4.0117
O 5.90874 1.47694 4.90505
H 6.34438 2.21366 4.39165
H 6.37457 1.48973 5.77433
O 4.55137 4.59073 4.30965
H 4.57706 3.82838 3.66429
H 4.5409 5.37457 3.69904
O 4.5904 2.92968 2.17022
H 4.5383 1.93341 2.1257
H 3.80662 3.31139 1.69112
O 2.87556 4.55713 0.81595
H 3.3097 4.55766 -0.08877000000000024
H 1.88111 4.55203 0.72554
O 0.15514 4.59745 0.77347
H -0.31069000000000013 4.58467 -0.09581000000000017
H -0.28049999999999997 3.86074 1.28687
O 4.55233 0.20849 2.12081
H 3.74386 -0.2710600000000003 1.68306
H 5.28372 -0.21119999999999983 1.66682
