36

O         -1.73961        7.12121        6.76838
H         -2.44596        7.80787        6.58096
H         -1.00938        7.26542        6.10006
O          0.48962        7.60240        5.32407
H          0.53297        7.25243        4.39083
H          1.15316        7.11260        5.88986
O         -0.06089        4.84058        8.00142
H          0.12219        3.94330        8.41030
H         -0.32700        4.67071        7.05576
O          1.04030       -1.23667        9.81620
H          0.85274       -2.13183       10.22518
H          1.69919       -1.42752        9.09083
O          0.42550        2.59368        9.37083
H          1.33013        2.18834        9.21954
H         -0.20694        1.82376        9.30294
O          2.05161        6.29891        7.16508
H          1.34131        5.71978        7.57194
H          2.78062        5.68889        6.85305
O          2.69845        1.25216        8.83840
H          2.22556        0.77488        8.09603
H          3.45453        1.75742        8.41444
O          4.27507        4.87191        6.61172
H          4.93732        5.62104        6.58989
H          4.31065        4.37900        5.74479
O          6.74009        1.78337        6.17990
H          6.47822        1.16875        5.43960
H          6.91321        2.67773        5.76019
O          4.84239        2.62569        7.99871
H          4.64623        3.51394        7.57970
H          5.49889        2.19599        7.38118
O          7.19234        4.28853        5.35466
H          6.56039        4.72308        4.71498
H          8.09742        4.43622        4.94935
O         -1.09474        0.30038        9.29838
H         -1.56804        0.03514        8.45683
H         -0.34411       -0.35423        9.41864

