648

O 0.0 1.18216 0.74248
H 0.0 1.97136 1.34045
H 0.0 0.39295 1.34045
O 2.36431 3.54647 4.15052
H 2.36431 4.33567 4.7485
H 2.36431 2.75726 4.7485
O 0.0 3.54647 2.44657
H -0.78921 3.54647 3.04454
H 0.78921 3.54647 3.04454
O 2.36431 1.18216 5.85461
H 3.15352 1.18216 6.45259
H 1.5751 1.18216 6.45259
O 2.36431 1.18216 2.66557
H 2.36431 1.97136 2.06759
H 2.36431 0.39295 2.06759
O 0.0 3.54647 6.07361
H 0.0 4.33567 5.47564
H 0.0 2.75726 5.47564
O 2.36431 3.54647 0.96148
H 3.15352 3.54647 0.3635
H 1.5751 3.54647 0.3635
O 0.0 1.18216 4.36952
H -0.78921 1.18216 3.77155
H 0.78921 1.18216 3.77155
O 0.0 1.18216 7.55857
H 0.0 1.97136 8.15654
H 0.0 0.39295 8.15654
O 2.36431 3.54647 10.96661
H 2.36431 4.33567 11.564589999999999
H 2.36431 2.75726 11.564589999999999
O 0.0 3.54647 9.26266
H -0.78921 3.54647 9.86063
H 0.78921 3.54647 9.86063
O 2.36431 1.18216 12.6707
H 3.15352 1.18216 13.26868
H 1.5751 1.18216 13.26868
O 2.36431 1.18216 9.48166
H 2.36431 1.97136 8.88368
H 2.36431 0.39295 8.88368
O 0.0 3.54647 12.889700000000001
H 0.0 4.33567 12.291730000000001
H 0.0 2.75726 12.291730000000001
O 2.36431 3.54647 7.77757
H 3.15352 3.54647 7.17959
H 1.5751 3.54647 7.17959
O 0.0 1.18216 11.18561
H -0.78921 1.18216 10.58764
H 0.78921 1.18216 10.58764
O 0.0 1.18216 14.37466
H 0.0 1.97136 14.97263
H 0.0 0.39295 14.97263
O 2.36431 3.54647 17.7827
H 2.36431 4.33567 18.380679999999998
H 2.36431 2.75726 18.380679999999998
O 0.0 3.54647 16.07875
H -0.78921 3.54647 16.67672
H 0.78921 3.54647 16.67672
O 2.36431 1.18216 19.48679
H 3.15352 1.18216 20.08477
H 1.5751 1.18216 20.08477
O 2.36431 1.18216 16.29775
H 2.36431 1.97136 15.699770000000001
H 2.36431 0.39295 15.699770000000001
O 0.0 3.54647 19.70579
H 0.0 4.33567 19.10782
H 0.0 2.75726 19.10782
O 2.36431 3.54647 14.59366
H 3.15352 3.54647 13.99568
H 1.5751 3.54647 13.99568
O 0.0 1.18216 18.0017
H -0.78921 1.18216 17.40373
H 0.78921 1.18216 17.40373
O 0.0 5.910780000000001 0.74248
H 0.0 6.69998 1.34045
H 0.0 5.12157 1.34045
O 2.36431 8.27509 4.15052
H 2.36431 9.06429 4.7485
H 2.36431 7.48588 4.7485
O 0.0 8.27509 2.44657
H -0.78921 8.27509 3.04454
H 0.78921 8.27509 3.04454
O 2.36431 5.910780000000001 5.85461
H 3.15352 5.910780000000001 6.45259
H 1.5751 5.910780000000001 6.45259
O 2.36431 5.910780000000001 2.66557
H 2.36431 6.69998 2.06759
H 2.36431 5.12157 2.06759
O 0.0 8.27509 6.07361
H 0.0 9.06429 5.47564
H 0.0 7.48588 5.47564
O 2.36431 8.27509 0.96148
H 3.15352 8.27509 0.3635
H 1.5751 8.27509 0.3635
O 0.0 5.910780000000001 4.36952
H -0.78921 5.910780000000001 3.77155
H 0.78921 5.910780000000001 3.77155
O 0.0 5.910780000000001 7.55857
H 0.0 6.69998 8.15654
H 0.0 5.12157 8.15654
O 2.36431 8.27509 10.96661
H 2.36431 9.06429 11.564589999999999
H 2.36431 7.48588 11.564589999999999
O 0.0 8.27509 9.26266
H -0.78921 8.27509 9.86063
H 0.78921 8.27509 9.86063
O 2.36431 5.910780000000001 12.6707
H 3.15352 5.910780000000001 13.26868
H 1.5751 5.910780000000001 13.26868
O 2.36431 5.910780000000001 9.48166
H 2.36431 6.69998 8.88368
H 2.36431 5.12157 8.88368
O 0.0 8.27509 12.889700000000001
H 0.0 9.06429 12.291730000000001
H 0.0 7.48588 12.291730000000001
O 2.36431 8.27509 7.77757
H 3.15352 8.27509 7.17959
H 1.5751 8.27509 7.17959
O 0.0 5.910780000000001 11.18561
H -0.78921 5.910780000000001 10.58764
H 0.78921 5.910780000000001 10.58764
O 0.0 5.910780000000001 14.37466
H 0.0 6.69998 14.97263
H 0.0 5.12157 14.97263
O 2.36431 8.27509 17.7827
H 2.36431 9.06429 18.380679999999998
H 2.36431 7.48588 18.380679999999998
O 0.0 8.27509 16.07875
H -0.78921 8.27509 16.67672
H 0.78921 8.27509 16.67672
O 2.36431 5.910780000000001 19.48679
H 3.15352 5.910780000000001 20.08477
H 1.5751 5.910780000000001 20.08477
O 2.36431 5.910780000000001 16.29775
H 2.36431 6.69998 15.699770000000001
H 2.36431 5.12157 15.699770000000001
O 0.0 8.27509 19.70579
H 0.0 9.06429 19.10782
H 0.0 7.48588 19.10782
O 2.36431 8.27509 14.59366
H 3.15352 8.27509 13.99568
H 1.5751 8.27509 13.99568
O 0.0 5.910780000000001 18.0017
H -0.78921 5.910780000000001 17.40373
H 0.78921 5.910780000000001 17.40373
O 0.0 10.6394 0.74248
H 0.0 11.428600000000001 1.34045
H 0.0 9.850190000000001 1.34045
O 2.36431 13.00371 4.15052
H 2.36431 13.792910000000001 4.7485
H 2.36431 12.214500000000001 4.7485
O 0.0 13.00371 2.44657
H -0.78921 13.00371 3.04454
H 0.78921 13.00371 3.04454
O 2.36431 10.6394 5.85461
H 3.15352 10.6394 6.45259
H 1.5751 10.6394 6.45259
O 2.36431 10.6394 2.66557
H 2.36431 11.428600000000001 2.06759
H 2.36431 9.850190000000001 2.06759
O 0.0 13.00371 6.07361
H 0.0 13.792910000000001 5.47564
H 0.0 12.214500000000001 5.47564
O 2.36431 13.00371 0.96148
H 3.15352 13.00371 0.3635
H 1.5751 13.00371 0.3635
O 0.0 10.6394 4.36952
H -0.78921 10.6394 3.77155
H 0.78921 10.6394 3.77155
O 0.0 10.6394 7.55857
H 0.0 11.428600000000001 8.15654
H 0.0 9.850190000000001 8.15654
O 2.36431 13.00371 10.96661
H 2.36431 13.792910000000001 11.564589999999999
H 2.36431 12.214500000000001 11.564589999999999
O 0.0 13.00371 9.26266
H -0.78921 13.00371 9.86063
H 0.78921 13.00371 9.86063
O 2.36431 10.6394 12.6707
H 3.15352 10.6394 13.26868
H 1.5751 10.6394 13.26868
O 2.36431 10.6394 9.48166
H 2.36431 11.428600000000001 8.88368
H 2.36431 9.850190000000001 8.88368
O 0.0 13.00371 12.889700000000001
H 0.0 13.792910000000001 12.291730000000001
H 0.0 12.214500000000001 12.291730000000001
O 2.36431 13.00371 7.77757
H 3.15352 13.00371 7.17959
H 1.5751 13.00371 7.17959
O 0.0 10.6394 11.18561
H -0.78921 10.6394 10.58764
H 0.78921 10.6394 10.58764
O 0.0 10.6394 14.37466
H 0.0 11.428600000000001 14.97263
H 0.0 9.850190000000001 14.97263
O 2.36431 13.00371 17.7827
H 2.36431 13.792910000000001 18.380679999999998
H 2.36431 12.214500000000001 18.380679999999998
O 0.0 13.00371 16.07875
H -0.78921 13.00371 16.67672
H 0.78921 13.00371 16.67672
O 2.36431 10.6394 19.48679
H 3.15352 10.6394 20.08477
H 1.5751 10.6394 20.08477
O 2.36431 10.6394 16.29775
H 2.36431 11.428600000000001 15.699770000000001
H 2.36431 9.850190000000001 15.699770000000001
O 0.0 13.00371 19.70579
H 0.0 13.792910000000001 19.10782
H 0.0 12.214500000000001 19.10782
O 2.36431 13.00371 14.59366
H 3.15352 13.00371 13.99568
H 1.5751 13.00371 13.99568
O 0.0 10.6394 18.0017
H -0.78921 10.6394 17.40373
H 0.78921 10.6394 17.40373
O 4.72862 1.18216 0.74248
H 4.72862 1.97136 1.34045
H 4.72862 0.39295 1.34045
O 7.092930000000001 3.54647 4.15052
H 7.092930000000001 4.33567 4.7485
H 7.092930000000001 2.75726 4.7485
O 4.72862 3.54647 2.44657
H 3.9394100000000005 3.54647 3.04454
H 5.51783 3.54647 3.04454
O 7.092930000000001 1.18216 5.85461
H 7.88214 1.18216 6.45259
H 6.30372 1.18216 6.45259
O 7.092930000000001 1.18216 2.66557
H 7.092930000000001 1.97136 2.06759
H 7.092930000000001 0.39295 2.06759
O 4.72862 3.54647 6.07361
H 4.72862 4.33567 5.47564
H 4.72862 2.75726 5.47564
O 7.092930000000001 3.54647 0.96148
H 7.88214 3.54647 0.3635
H 6.30372 3.54647 0.3635
O 4.72862 1.18216 4.36952
H 3.9394100000000005 1.18216 3.77155
H 5.51783 1.18216 3.77155
O 4.72862 1.18216 7.55857
H 4.72862 1.97136 8.15654
H 4.72862 0.39295 8.15654
O 7.092930000000001 3.54647 10.96661
H 7.092930000000001 4.33567 11.564589999999999
H 7.092930000000001 2.75726 11.564589999999999
O 4.72862 3.54647 9.26266
H 3.9394100000000005 3.54647 9.86063
H 5.51783 3.54647 9.86063
O 7.092930000000001 1.18216 12.6707
H 7.88214 1.18216 13.26868
H 6.30372 1.18216 13.26868
O 7.092930000000001 1.18216 9.48166
H 7.092930000000001 1.97136 8.88368
H 7.092930000000001 0.39295 8.88368
O 4.72862 3.54647 12.889700000000001
H 4.72862 4.33567 12.291730000000001
H 4.72862 2.75726 12.291730000000001
O 7.092930000000001 3.54647 7.77757
H 7.88214 3.54647 7.17959
H 6.30372 3.54647 7.17959
O 4.72862 1.18216 11.18561
H 3.9394100000000005 1.18216 10.58764
H 5.51783 1.18216 10.58764
O 4.72862 1.18216 14.37466
H 4.72862 1.97136 14.97263
H 4.72862 0.39295 14.97263
O 7.092930000000001 3.54647 17.7827
H 7.092930000000001 4.33567 18.380679999999998
H 7.092930000000001 2.75726 18.380679999999998
O 4.72862 3.54647 16.07875
H 3.9394100000000005 3.54647 16.67672
H 5.51783 3.54647 16.67672
O 7.092930000000001 1.18216 19.48679
H 7.88214 1.18216 20.08477
H 6.30372 1.18216 20.08477
O 7.092930000000001 1.18216 16.29775
H 7.092930000000001 1.97136 15.699770000000001
H 7.092930000000001 0.39295 15.699770000000001
O 4.72862 3.54647 19.70579
H 4.72862 4.33567 19.10782
H 4.72862 2.75726 19.10782
O 7.092930000000001 3.54647 14.59366
H 7.88214 3.54647 13.99568
H 6.30372 3.54647 13.99568
O 4.72862 1.18216 18.0017
H 3.9394100000000005 1.18216 17.40373
H 5.51783 1.18216 17.40373
O 4.72862 5.910780000000001 0.74248
H 4.72862 6.69998 1.34045
H 4.72862 5.12157 1.34045
O 7.092930000000001 8.27509 4.15052
H 7.092930000000001 9.06429 4.7485
H 7.092930000000001 7.48588 4.7485
O 4.72862 8.27509 2.44657
H 3.9394100000000005 8.27509 3.04454
H 5.51783 8.27509 3.04454
O 7.092930000000001 5.910780000000001 5.85461
H 7.88214 5.910780000000001 6.45259
H 6.30372 5.910780000000001 6.45259
O 7.092930000000001 5.910780000000001 2.66557
H 7.092930000000001 6.69998 2.06759
H 7.092930000000001 5.12157 2.06759
O 4.72862 8.27509 6.07361
H 4.72862 9.06429 5.47564
H 4.72862 7.48588 5.47564
O 7.092930000000001 8.27509 0.96148
H 7.88214 8.27509 0.3635
H 6.30372 8.27509 0.3635
O 4.72862 5.910780000000001 4.36952
H 3.9394100000000005 5.910780000000001 3.77155
H 5.51783 5.910780000000001 3.77155
O 4.72862 5.910780000000001 7.55857
H 4.72862 6.69998 8.15654
H 4.72862 5.12157 8.15654
O 7.092930000000001 8.27509 10.96661
H 7.092930000000001 9.06429 11.564589999999999
H 7.092930000000001 7.48588 11.564589999999999
O 4.72862 8.27509 9.26266
H 3.9394100000000005 8.27509 9.86063
H 5.51783 8.27509 9.86063
O 7.092930000000001 5.910780000000001 12.6707
H 7.88214 5.910780000000001 13.26868
H 6.30372 5.910780000000001 13.26868
O 7.092930000000001 5.910780000000001 9.48166
H 7.092930000000001 6.69998 8.88368
H 7.092930000000001 5.12157 8.88368
O 4.72862 8.27509 12.889700000000001
H 4.72862 9.06429 12.291730000000001
H 4.72862 7.48588 12.291730000000001
O 7.092930000000001 8.27509 7.77757
H 7.88214 8.27509 7.17959
H 6.30372 8.27509 7.17959
O 4.72862 5.910780000000001 11.18561
H 3.9394100000000005 5.910780000000001 10.58764
H 5.51783 5.910780000000001 10.58764
O 4.72862 5.910780000000001 14.37466
H 4.72862 6.69998 14.97263
H 4.72862 5.12157 14.97263
O 7.092930000000001 8.27509 17.7827
H 7.092930000000001 9.06429 18.380679999999998
H 7.092930000000001 7.48588 18.380679999999998
O 4.72862 8.27509 16.07875
H 3.9394100000000005 8.27509 16.67672
H 5.51783 8.27509 16.67672
O 7.092930000000001 5.910780000000001 19.48679
H 7.88214 5.910780000000001 20.08477
H 6.30372 5.910780000000001 20.08477
O 7.092930000000001 5.910780000000001 16.29775
H 7.092930000000001 6.69998 15.699770000000001
H 7.092930000000001 5.12157 15.699770000000001
O 4.72862 8.27509 19.70579
H 4.72862 9.06429 19.10782
H 4.72862 7.48588 19.10782
O 7.092930000000001 8.27509 14.59366
H 7.88214 8.27509 13.99568
H 6.30372 8.27509 13.99568
O 4.72862 5.910780000000001 18.0017
H 3.9394100000000005 5.910780000000001 17.40373
H 5.51783 5.910780000000001 17.40373
O 4.72862 10.6394 0.74248
H 4.72862 11.428600000000001 1.34045
H 4.72862 9.850190000000001 1.34045
O 7.092930000000001 13.00371 4.15052
H 7.092930000000001 13.792910000000001 4.7485
H 7.092930000000001 12.214500000000001 4.7485
O 4.72862 13.00371 2.44657
H 3.9394100000000005 13.00371 3.04454
H 5.51783 13.00371 3.04454
O 7.092930000000001 10.6394 5.85461
H 7.88214 10.6394 6.45259
H 6.30372 10.6394 6.45259
O 7.092930000000001 10.6394 2.66557
H 7.092930000000001 11.428600000000001 2.06759
H 7.092930000000001 9.850190000000001 2.06759
O 4.72862 13.00371 6.07361
H 4.72862 13.792910000000001 5.47564
H 4.72862 12.214500000000001 5.47564
O 7.092930000000001 13.00371 0.96148
H 7.88214 13.00371 0.3635
H 6.30372 13.00371 0.3635
O 4.72862 10.6394 4.36952
H 3.9394100000000005 10.6394 3.77155
H 5.51783 10.6394 3.77155
O 4.72862 10.6394 7.55857
H 4.72862 11.428600000000001 8.15654
H 4.72862 9.850190000000001 8.15654
O 7.092930000000001 13.00371 10.96661
H 7.092930000000001 13.792910000000001 11.564589999999999
H 7.092930000000001 12.214500000000001 11.564589999999999
O 4.72862 13.00371 9.26266
H 3.9394100000000005 13.00371 9.86063
H 5.51783 13.00371 9.86063
O 7.092930000000001 10.6394 12.6707
H 7.88214 10.6394 13.26868
H 6.30372 10.6394 13.26868
O 7.092930000000001 10.6394 9.48166
H 7.092930000000001 11.428600000000001 8.88368
H 7.092930000000001 9.850190000000001 8.88368
O 4.72862 13.00371 12.889700000000001
H 4.72862 13.792910000000001 12.291730000000001
H 4.72862 12.214500000000001 12.291730000000001
O 7.092930000000001 13.00371 7.77757
H 7.88214 13.00371 7.17959
H 6.30372 13.00371 7.17959
O 4.72862 10.6394 11.18561
H 3.9394100000000005 10.6394 10.58764
H 5.51783 10.6394 10.58764
O 4.72862 10.6394 14.37466
H 4.72862 11.428600000000001 14.97263
H 4.72862 9.850190000000001 14.97263
O 7.092930000000001 13.00371 17.7827
H 7.092930000000001 13.792910000000001 18.380679999999998
H 7.092930000000001 12.214500000000001 18.380679999999998
O 4.72862 13.00371 16.07875
H 3.9394100000000005 13.00371 16.67672
H 5.51783 13.00371 16.67672
O 7.092930000000001 10.6394 19.48679
H 7.88214 10.6394 20.08477
H 6.30372 10.6394 20.08477
O 7.092930000000001 10.6394 16.29775
H 7.092930000000001 11.428600000000001 15.699770000000001
H 7.092930000000001 9.850190000000001 15.699770000000001
O 4.72862 13.00371 19.70579
H 4.72862 13.792910000000001 19.10782
H 4.72862 12.214500000000001 19.10782
O 7.092930000000001 13.00371 14.59366
H 7.88214 13.00371 13.99568
H 6.30372 13.00371 13.99568
O 4.72862 10.6394 18.0017
H 3.9394100000000005 10.6394 17.40373
H 5.51783 10.6394 17.40373
O 9.45724 1.18216 0.74248
H 9.45724 1.97136 1.34045
H 9.45724 0.39295 1.34045
O 11.82155 3.54647 4.15052
H 11.82155 4.33567 4.7485
H 11.82155 2.75726 4.7485
O 9.45724 3.54647 2.44657
H 8.66803 3.54647 3.04454
H 10.246450000000001 3.54647 3.04454
O 11.82155 1.18216 5.85461
H 12.61076 1.18216 6.45259
H 11.032340000000001 1.18216 6.45259
O 11.82155 1.18216 2.66557
H 11.82155 1.97136 2.06759
H 11.82155 0.39295 2.06759
O 9.45724 3.54647 6.07361
H 9.45724 4.33567 5.47564
H 9.45724 2.75726 5.47564
O 11.82155 3.54647 0.96148
H 12.61076 3.54647 0.3635
H 11.032340000000001 3.54647 0.3635
O 9.45724 1.18216 4.36952
H 8.66803 1.18216 3.77155
H 10.246450000000001 1.18216 3.77155
O 9.45724 1.18216 7.55857
H 9.45724 1.97136 8.15654
H 9.45724 0.39295 8.15654
O 11.82155 3.54647 10.96661
H 11.82155 4.33567 11.564589999999999
H 11.82155 2.75726 11.564589999999999
O 9.45724 3.54647 9.26266
H 8.66803 3.54647 9.86063
H 10.246450000000001 3.54647 9.86063
O 11.82155 1.18216 12.6707
H 12.61076 1.18216 13.26868
H 11.032340000000001 1.18216 13.26868
O 11.82155 1.18216 9.48166
H 11.82155 1.97136 8.88368
H 11.82155 0.39295 8.88368
O 9.45724 3.54647 12.889700000000001
H 9.45724 4.33567 12.291730000000001
H 9.45724 2.75726 12.291730000000001
O 11.82155 3.54647 7.77757
H 12.61076 3.54647 7.17959
H 11.032340000000001 3.54647 7.17959
O 9.45724 1.18216 11.18561
H 8.66803 1.18216 10.58764
H 10.246450000000001 1.18216 10.58764
O 9.45724 1.18216 14.37466
H 9.45724 1.97136 14.97263
H 9.45724 0.39295 14.97263
O 11.82155 3.54647 17.7827
H 11.82155 4.33567 18.380679999999998
H 11.82155 2.75726 18.380679999999998
O 9.45724 3.54647 16.07875
H 8.66803 3.54647 16.67672
H 10.246450000000001 3.54647 16.67672
O 11.82155 1.18216 19.48679
H 12.61076 1.18216 20.08477
H 11.032340000000001 1.18216 20.08477
O 11.82155 1.18216 16.29775
H 11.82155 1.97136 15.699770000000001
H 11.82155 0.39295 15.699770000000001
O 9.45724 3.54647 19.70579
H 9.45724 4.33567 19.10782
H 9.45724 2.75726 19.10782
O 11.82155 3.54647 14.59366
H 12.61076 3.54647 13.99568
H 11.032340000000001 3.54647 13.99568
O 9.45724 1.18216 18.0017
H 8.66803 1.18216 17.40373
H 10.246450000000001 1.18216 17.40373
O 9.45724 5.910780000000001 0.74248
H 9.45724 6.69998 1.34045
H 9.45724 5.12157 1.34045
O 11.82155 8.27509 4.15052
H 11.82155 9.06429 4.7485
H 11.82155 7.48588 4.7485
O 9.45724 8.27509 2.44657
H 8.66803 8.27509 3.04454
H 10.246450000000001 8.27509 3.04454
O 11.82155 5.910780000000001 5.85461
H 12.61076 5.910780000000001 6.45259
H 11.032340000000001 5.910780000000001 6.45259
O 11.82155 5.910780000000001 2.66557
H 11.82155 6.69998 2.06759
H 11.82155 5.12157 2.06759
O 9.45724 8.27509 6.07361
H 9.45724 9.06429 5.47564
H 9.45724 7.48588 5.47564
O 11.82155 8.27509 0.96148
H 12.61076 8.27509 0.3635
H 11.032340000000001 8.27509 0.3635
O 9.45724 5.910780000000001 4.36952
H 8.66803 5.910780000000001 3.77155
H 10.246450000000001 5.910780000000001 3.77155
O 9.45724 5.910780000000001 7.55857
H 9.45724 6.69998 8.15654
H 9.45724 5.12157 8.15654
O 11.82155 8.27509 10.96661
H 11.82155 9.06429 11.564589999999999
H 11.82155 7.48588 11.564589999999999
O 9.45724 8.27509 9.26266
H 8.66803 8.27509 9.86063
H 10.246450000000001 8.27509 9.86063
O 11.82155 5.910780000000001 12.6707
H 12.61076 5.910780000000001 13.26868
H 11.032340000000001 5.910780000000001 13.26868
O 11.82155 5.910780000000001 9.48166
H 11.82155 6.69998 8.88368
H 11.82155 5.12157 8.88368
O 9.45724 8.27509 12.889700000000001
H 9.45724 9.06429 12.291730000000001
H 9.45724 7.48588 12.291730000000001
O 11.82155 8.27509 7.77757
H 12.61076 8.27509 7.17959
H 11.032340000000001 8.27509 7.17959
O 9.45724 5.910780000000001 11.18561
H 8.66803 5.910780000000001 10.58764
H 10.246450000000001 5.910780000000001 10.58764
O 9.45724 5.910780000000001 14.37466
H 9.45724 6.69998 14.97263
H 9.45724 5.12157 14.97263
O 11.82155 8.27509 17.7827
H 11.82155 9.06429 18.380679999999998
H 11.82155 7.48588 18.380679999999998
O 9.45724 8.27509 16.07875
H 8.66803 8.27509 16.67672
H 10.246450000000001 8.27509 16.67672
O 11.82155 5.910780000000001 19.48679
H 12.61076 5.910780000000001 20.08477
H 11.032340000000001 5.910780000000001 20.08477
O 11.82155 5.910780000000001 16.29775
H 11.82155 6.69998 15.699770000000001
H 11.82155 5.12157 15.699770000000001
O 9.45724 8.27509 19.70579
H 9.45724 9.06429 19.10782
H 9.45724 7.48588 19.10782
O 11.82155 8.27509 14.59366
H 12.61076 8.27509 13.99568
H 11.032340000000001 8.27509 13.99568
O 9.45724 5.910780000000001 18.0017
H 8.66803 5.910780000000001 17.40373
H 10.246450000000001 5.910780000000001 17.40373
O 9.45724 10.6394 0.74248
H 9.45724 11.428600000000001 1.34045
H 9.45724 9.850190000000001 1.34045
O 11.82155 13.00371 4.15052
H 11.82155 13.792910000000001 4.7485
H 11.82155 12.214500000000001 4.7485
O 9.45724 13.00371 2.44657
H 8.66803 13.00371 3.04454
H 10.246450000000001 13.00371 3.04454
O 11.82155 10.6394 5.85461
H 12.61076 10.6394 6.45259
H 11.032340000000001 10.6394 6.45259
O 11.82155 10.6394 2.66557
H 11.82155 11.428600000000001 2.06759
H 11.82155 9.850190000000001 2.06759
O 9.45724 13.00371 6.07361
H 9.45724 13.792910000000001 5.47564
H 9.45724 12.214500000000001 5.47564
O 11.82155 13.00371 0.96148
H 12.61076 13.00371 0.3635
H 11.032340000000001 13.00371 0.3635
O 9.45724 10.6394 4.36952
H 8.66803 10.6394 3.77155
H 10.246450000000001 10.6394 3.77155
O 9.45724 10.6394 7.55857
H 9.45724 11.428600000000001 8.15654
H 9.45724 9.850190000000001 8.15654
O 11.82155 13.00371 10.96661
H 11.82155 13.792910000000001 11.564589999999999
H 11.82155 12.214500000000001 11.564589999999999
O 9.45724 13.00371 9.26266
H 8.66803 13.00371 9.86063
H 10.246450000000001 13.00371 9.86063
O 11.82155 10.6394 12.6707
H 12.61076 10.6394 13.26868
H 11.032340000000001 10.6394 13.26868
O 11.82155 10.6394 9.48166
H 11.82155 11.428600000000001 8.88368
H 11.82155 9.850190000000001 8.88368
O 9.45724 13.00371 12.889700000000001
H 9.45724 13.792910000000001 12.291730000000001
H 9.45724 12.214500000000001 12.291730000000001
O 11.82155 13.00371 7.77757
H 12.61076 13.00371 7.17959
H 11.032340000000001 13.00371 7.17959
O 9.45724 10.6394 11.18561
H 8.66803 10.6394 10.58764
H 10.246450000000001 10.6394 10.58764
O 9.45724 10.6394 14.37466
H 9.45724 11.428600000000001 14.97263
H 9.45724 9.850190000000001 14.97263
O 11.82155 13.00371 17.7827
H 11.82155 13.792910000000001 18.380679999999998
H 11.82155 12.214500000000001 18.380679999999998
O 9.45724 13.00371 16.07875
H 8.66803 13.00371 16.67672
H 10.246450000000001 13.00371 16.67672
O 11.82155 10.6394 19.48679
H 12.61076 10.6394 20.08477
H 11.032340000000001 10.6394 20.08477
O 11.82155 10.6394 16.29775
H 11.82155 11.428600000000001 15.699770000000001
H 11.82155 9.850190000000001 15.699770000000001
O 9.45724 13.00371 19.70579
H 9.45724 13.792910000000001 19.10782
H 9.45724 12.214500000000001 19.10782
O 11.82155 13.00371 14.59366
H 12.61076 13.00371 13.99568
H 11.032340000000001 13.00371 13.99568
O 9.45724 10.6394 18.0017
H 8.66803 10.6394 17.40373
H 10.246450000000001 10.6394 17.40373