36

O 0.7296 1.99777 1.88703
H -0.09436 2.20827 1.35576
H 0.74884 0.99885 1.9671
O 5.76996 4.50095 5.30308
H 6.59391 4.29045 4.77182
H 5.75071 5.49987 5.38316
O 1.25344 3.98105 3.5926
H 1.04317 3.15669 3.06181
H 2.25224 4.00107 3.67308
O 5.24611 2.51767 0.17654
H 5.45638 3.34203 -0.3542399999999999
H 4.24731 2.49765 0.25702
O 2.51715 5.24564 6.65598
H 3.3418 5.45594 7.18635
H 2.49747 4.24691 6.57502
O 3.9824 1.25308 3.23992
H 3.15775 1.04278 3.7703
H 4.00208 2.25181 3.15896
O 1.99846 0.72935 4.94481
H 2.20925 -0.09461999999999993 5.47607
H 0.99954 0.74911 4.86487
O 4.50109 5.76937 1.52875
H 4.2903 6.5933399999999995 2.06002
H 5.50002 5.74961 1.44882
O 2.57174 2.57115 6.83211
H 1.93594 2.34591 7.57599
H 2.34655 1.93545 6.08809
O 3.92781 3.92757 3.41606
H 4.56361 4.15281 4.15994
H 4.153 4.56327 2.67204
O 0.67475 5.82376 1.70816
H 0.90103 5.18825 2.45204
H 1.31037 5.59774 0.96428
O 5.8248 0.67496 5.12422
H 5.59852 1.31047 5.8681
H 5.18918 0.90098 4.38034
