648
#ice viii 3x3x3 supercell; PBE-D3; Brandenburg, Maas, and Grimme JCP 2015
O 1.05 1.18216 0.74248
H 1.05 1.97136 1.34045
H 1.05 0.39295 1.34045
O 3.41431 3.54647 4.15052
H 3.41431 4.33567 4.7485
H 3.41431 2.75726 4.7485
O 1.05 3.54647 2.44657
H 0.26079 3.54647 3.04454
H 1.83921 3.54647 3.04454
O 3.41431 1.18216 5.85461
H 4.20352 1.18216 6.45259
H 2.6251 1.18216 6.45259
O 3.41431 1.18216 2.66557
H 3.41431 1.97136 2.06759
H 3.41431 0.39295 2.06759
O 1.05 3.54647 6.07361
H 1.05 4.33567 5.47564
H 1.05 2.75726 5.47564
O 3.41431 3.54647 0.96148
H 4.20352 3.54647 0.3635
H 2.6251 3.54647 0.3635
O 1.05 1.18216 4.36952
H 0.26079 1.18216 3.77155
H 1.83921 1.18216 3.77155
O 1.05 1.18216 7.55857
H 1.05 1.97136 8.15654
H 1.05 0.39295 8.15654
O 3.41431 3.54647 10.96661
H 3.41431 4.33567 11.56459
H 3.41431 2.75726 11.56459
O 1.05 3.54647 9.26266
H 0.26079 3.54647 9.86063
H 1.83921 3.54647 9.86063
O 3.41431 1.18216 12.6707
H 4.20352 1.18216 13.26868
H 2.6251 1.18216 13.26868
O 3.41431 1.18216 9.48166
H 3.41431 1.97136 8.88368
H 3.41431 0.39295 8.88368
O 1.05 3.54647 12.8897
H 1.05 4.33567 12.29173
H 1.05 2.75726 12.29173
O 3.41431 3.54647 7.77757
H 4.20352 3.54647 7.17959
H 2.6251 3.54647 7.17959
O 1.05 1.18216 11.18561
H 0.26079 1.18216 10.58764
H 1.83921 1.18216 10.58764
O 1.05 1.18216 14.37466
H 1.05 1.97136 14.97263
H 1.05 0.39295 14.97263
O 3.41431 3.54647 17.7827
H 3.41431 4.33567 18.38068
H 3.41431 2.75726 18.38068
O 1.05 3.54647 16.07875
H 0.26079 3.54647 16.67672
H 1.83921 3.54647 16.67672
O 3.41431 1.18216 19.48679
H 4.20352 1.18216 20.08477
H 2.6251 1.18216 20.08477
O 3.41431 1.18216 16.29775
H 3.41431 1.97136 15.69977
H 3.41431 0.39295 15.69977
O 1.05 3.54647 19.70579
H 1.05 4.33567 19.10782
H 1.05 2.75726 19.10782
O 3.41431 3.54647 14.59366
H 4.20352 3.54647 13.99568
H 2.6251 3.54647 13.99568
O 1.05 1.18216 18.0017
H 0.26079 1.18216 17.40373
H 1.83921 1.18216 17.40373
O 1.05 5.91078 0.74248
H 1.05 6.69998 1.34045
H 1.05 5.12157 1.34045
O 3.41431 8.27509 4.15052
H 3.41431 9.06429 4.7485
H 3.41431 7.48588 4.7485
O 1.05 8.27509 2.44657
H 0.26079 8.27509 3.04454
H 1.83921 8.27509 3.04454
O 3.41431 5.91078 5.85461
H 4.20352 5.91078 6.45259
H 2.6251 5.91078 6.45259
O 3.41431 5.91078 2.66557
H 3.41431 6.69998 2.06759
H 3.41431 5.12157 2.06759
O 1.05 8.27509 6.07361
H 1.05 9.06429 5.47564
H 1.05 7.48588 5.47564
O 3.41431 8.27509 0.96148
H 4.20352 8.27509 0.3635
H 2.6251 8.27509 0.3635
O 1.05 5.91078 4.36952
H 0.26079 5.91078 3.77155
H 1.83921 5.91078 3.77155
O 1.05 5.91078 7.55857
H 1.05 6.69998 8.15654
H 1.05 5.12157 8.15654
O 3.41431 8.27509 10.96661
H 3.41431 9.06429 11.56459
H 3.41431 7.48588 11.56459
O 1.05 8.27509 9.26266
H 0.26079 8.27509 9.86063
H 1.83921 8.27509 9.86063
O 3.41431 5.91078 12.6707
H 4.20352 5.91078 13.26868
H 2.6251 5.91078 13.26868
O 3.41431 5.91078 9.48166
H 3.41431 6.69998 8.88368
H 3.41431 5.12157 8.88368
O 1.05 8.27509 12.8897
H 1.05 9.06429 12.29173
H 1.05 7.48588 12.29173
O 3.41431 8.27509 7.77757
H 4.20352 8.27509 7.17959
H 2.6251 8.27509 7.17959
O 1.05 5.91078 11.18561
H 0.26079 5.91078 10.58764
H 1.83921 5.91078 10.58764
O 1.05 5.91078 14.37466
H 1.05 6.69998 14.97263
H 1.05 5.12157 14.97263
O 3.41431 8.27509 17.7827
H 3.41431 9.06429 18.38068
H 3.41431 7.48588 18.38068
O 1.05 8.27509 16.07875
H 0.26079 8.27509 16.67672
H 1.83921 8.27509 16.67672
O 3.41431 5.91078 19.48679
H 4.20352 5.91078 20.08477
H 2.6251 5.91078 20.08477
O 3.41431 5.91078 16.29775
H 3.41431 6.69998 15.69977
H 3.41431 5.12157 15.69977
O 1.05 8.27509 19.70579
H 1.05 9.06429 19.10782
H 1.05 7.48588 19.10782
O 3.41431 8.27509 14.59366
H 4.20352 8.27509 13.99568
H 2.6251 8.27509 13.99568
O 1.05 5.91078 18.0017
H 0.26079 5.91078 17.40373
H 1.83921 5.91078 17.40373
O 1.05 10.6394 0.74248
H 1.05 11.4286 1.34045
H 1.05 9.85019 1.34045
O 3.41431 13.00371 4.15052
H 3.41431 13.79291 4.7485
H 3.41431 12.2145 4.7485
O 1.05 13.00371 2.44657
H 0.26079 13.00371 3.04454
H 1.83921 13.00371 3.04454
O 3.41431 10.6394 5.85461
H 4.20352 10.6394 6.45259
H 2.6251 10.6394 6.45259
O 3.41431 10.6394 2.66557
H 3.41431 11.4286 2.06759
H 3.41431 9.85019 2.06759
O 1.05 13.00371 6.07361
H 1.05 13.79291 5.47564
H 1.05 12.2145 5.47564
O 3.41431 13.00371 0.96148
H 4.20352 13.00371 0.3635
H 2.6251 13.00371 0.3635
O 1.05 10.6394 4.36952
H 0.26079 10.6394 3.77155
H 1.83921 10.6394 3.77155
O 1.05 10.6394 7.55857
H 1.05 11.4286 8.15654
H 1.05 9.85019 8.15654
O 3.41431 13.00371 10.96661
H 3.41431 13.79291 11.56459
H 3.41431 12.2145 11.56459
O 1.05 13.00371 9.26266
H 0.26079 13.00371 9.86063
H 1.83921 13.00371 9.86063
O 3.41431 10.6394 12.6707
H 4.20352 10.6394 13.26868
H 2.6251 10.6394 13.26868
O 3.41431 10.6394 9.48166
H 3.41431 11.4286 8.88368
H 3.41431 9.85019 8.88368
O 1.05 13.00371 12.8897
H 1.05 13.79291 12.29173
H 1.05 12.2145 12.29173
O 3.41431 13.00371 7.77757
H 4.20352 13.00371 7.17959
H 2.6251 13.00371 7.17959
O 1.05 10.6394 11.18561
H 0.26079 10.6394 10.58764
H 1.83921 10.6394 10.58764
O 1.05 10.6394 14.37466
H 1.05 11.4286 14.97263
H 1.05 9.85019 14.97263
O 3.41431 13.00371 17.7827
H 3.41431 13.79291 18.38068
H 3.41431 12.2145 18.38068
O 1.05 13.00371 16.07875
H 0.26079 13.00371 16.67672
H 1.83921 13.00371 16.67672
O 3.41431 10.6394 19.48679
H 4.20352 10.6394 20.08477
H 2.6251 10.6394 20.08477
O 3.41431 10.6394 16.29775
H 3.41431 11.4286 15.69977
H 3.41431 9.85019 15.69977
O 1.05 13.00371 19.70579
H 1.05 13.79291 19.10782
H 1.05 12.2145 19.10782
O 3.41431 13.00371 14.59366
H 4.20352 13.00371 13.99568
H 2.6251 13.00371 13.99568
O 1.05 10.6394 18.0017
H 0.26079 10.6394 17.40373
H 1.83921 10.6394 17.40373
O 5.77862 1.18216 0.74248
H 5.77862 1.97136 1.34045
H 5.77862 0.39295 1.34045
O 8.14293 3.54647 4.15052
H 8.14293 4.33567 4.7485
H 8.14293 2.75726 4.7485
O 5.77862 3.54647 2.44657
H 4.98941 3.54647 3.04454
H 6.56783 3.54647 3.04454
O 8.14293 1.18216 5.85461
H 8.93214 1.18216 6.45259
H 7.35372 1.18216 6.45259
O 8.14293 1.18216 2.66557
H 8.14293 1.97136 2.06759
H 8.14293 0.39295 2.06759
O 5.77862 3.54647 6.07361
H 5.77862 4.33567 5.47564
H 5.77862 2.75726 5.47564
O 8.14293 3.54647 0.96148
H 8.93214 3.54647 0.3635
H 7.35372 3.54647 0.3635
O 5.77862 1.18216 4.36952
H 4.98941 1.18216 3.77155
H 6.56783 1.18216 3.77155
O 5.77862 1.18216 7.55857
H 5.77862 1.97136 8.15654
H 5.77862 0.39295 8.15654
O 8.14293 3.54647 10.96661
H 8.14293 4.33567 11.56459
H 8.14293 2.75726 11.56459
O 5.77862 3.54647 9.26266
H 4.98941 3.54647 9.86063
H 6.56783 3.54647 9.86063
O 8.14293 1.18216 12.6707
H 8.93214 1.18216 13.26868
H 7.35372 1.18216 13.26868
O 8.14293 1.18216 9.48166
H 8.14293 1.97136 8.88368
H 8.14293 0.39295 8.88368
O 5.77862 3.54647 12.8897
H 5.77862 4.33567 12.29173
H 5.77862 2.75726 12.29173
O 8.14293 3.54647 7.77757
H 8.93214 3.54647 7.17959
H 7.35372 3.54647 7.17959
O 5.77862 1.18216 11.18561
H 4.98941 1.18216 10.58764
H 6.56783 1.18216 10.58764
O 5.77862 1.18216 14.37466
H 5.77862 1.97136 14.97263
H 5.77862 0.39295 14.97263
O 8.14293 3.54647 17.7827
H 8.14293 4.33567 18.38068
H 8.14293 2.75726 18.38068
O 5.77862 3.54647 16.07875
H 4.98941 3.54647 16.67672
H 6.56783 3.54647 16.67672
O 8.14293 1.18216 19.48679
H 8.93214 1.18216 20.08477
H 7.35372 1.18216 20.08477
O 8.14293 1.18216 16.29775
H 8.14293 1.97136 15.69977
H 8.14293 0.39295 15.69977
O 5.77862 3.54647 19.70579
H 5.77862 4.33567 19.10782
H 5.77862 2.75726 19.10782
O 8.14293 3.54647 14.59366
H 8.93214 3.54647 13.99568
H 7.35372 3.54647 13.99568
O 5.77862 1.18216 18.0017
H 4.98941 1.18216 17.40373
H 6.56783 1.18216 17.40373
O 5.77862 5.91078 0.74248
H 5.77862 6.69998 1.34045
H 5.77862 5.12157 1.34045
O 8.14293 8.27509 4.15052
H 8.14293 9.06429 4.7485
H 8.14293 7.48588 4.7485
O 5.77862 8.27509 2.44657
H 4.98941 8.27509 3.04454
H 6.56783 8.27509 3.04454
O 8.14293 5.91078 5.85461
H 8.93214 5.91078 6.45259
H 7.35372 5.91078 6.45259
O 8.14293 5.91078 2.66557
H 8.14293 6.69998 2.06759
H 8.14293 5.12157 2.06759
O 5.77862 8.27509 6.07361
H 5.77862 9.06429 5.47564
H 5.77862 7.48588 5.47564
O 8.14293 8.27509 0.96148
H 8.93214 8.27509 0.3635
H 7.35372 8.27509 0.3635
O 5.77862 5.91078 4.36952
H 4.98941 5.91078 3.77155
H 6.56783 5.91078 3.77155
O 5.77862 5.91078 7.55857
H 5.77862 6.69998 8.15654
H 5.77862 5.12157 8.15654
O 8.14293 8.27509 10.96661
H 8.14293 9.06429 11.56459
H 8.14293 7.48588 11.56459
O 5.77862 8.27509 9.26266
H 4.98941 8.27509 9.86063
H 6.56783 8.27509 9.86063
O 8.14293 5.91078 12.6707
H 8.93214 5.91078 13.26868
H 7.35372 5.91078 13.26868
O 8.14293 5.91078 9.48166
H 8.14293 6.69998 8.88368
H 8.14293 5.12157 8.88368
O 5.77862 8.27509 12.8897
H 5.77862 9.06429 12.29173
H 5.77862 7.48588 12.29173
O 8.14293 8.27509 7.77757
H 8.93214 8.27509 7.17959
H 7.35372 8.27509 7.17959
O 5.77862 5.91078 11.18561
H 4.98941 5.91078 10.58764
H 6.56783 5.91078 10.58764
O 5.77862 5.91078 14.37466
H 5.77862 6.69998 14.97263
H 5.77862 5.12157 14.97263
O 8.14293 8.27509 17.7827
H 8.14293 9.06429 18.38068
H 8.14293 7.48588 18.38068
O 5.77862 8.27509 16.07875
H 4.98941 8.27509 16.67672
H 6.56783 8.27509 16.67672
O 8.14293 5.91078 19.48679
H 8.93214 5.91078 20.08477
H 7.35372 5.91078 20.08477
O 8.14293 5.91078 16.29775
H 8.14293 6.69998 15.69977
H 8.14293 5.12157 15.69977
O 5.77862 8.27509 19.70579
H 5.77862 9.06429 19.10782
H 5.77862 7.48588 19.10782
O 8.14293 8.27509 14.59366
H 8.93214 8.27509 13.99568
H 7.35372 8.27509 13.99568
O 5.77862 5.91078 18.0017
H 4.98941 5.91078 17.40373
H 6.56783 5.91078 17.40373
O 5.77862 10.6394 0.74248
H 5.77862 11.4286 1.34045
H 5.77862 9.85019 1.34045
O 8.14293 13.00371 4.15052
H 8.14293 13.79291 4.7485
H 8.14293 12.2145 4.7485
O 5.77862 13.00371 2.44657
H 4.98941 13.00371 3.04454
H 6.56783 13.00371 3.04454
O 8.14293 10.6394 5.85461
H 8.93214 10.6394 6.45259
H 7.35372 10.6394 6.45259
O 8.14293 10.6394 2.66557
H 8.14293 11.4286 2.06759
H 8.14293 9.85019 2.06759
O 5.77862 13.00371 6.07361
H 5.77862 13.79291 5.47564
H 5.77862 12.2145 5.47564
O 8.14293 13.00371 0.96148
H 8.93214 13.00371 0.3635
H 7.35372 13.00371 0.3635
O 5.77862 10.6394 4.36952
H 4.98941 10.6394 3.77155
H 6.56783 10.6394 3.77155
O 5.77862 10.6394 7.55857
H 5.77862 11.4286 8.15654
H 5.77862 9.85019 8.15654
O 8.14293 13.00371 10.96661
H 8.14293 13.79291 11.56459
H 8.14293 12.2145 11.56459
O 5.77862 13.00371 9.26266
H 4.98941 13.00371 9.86063
H 6.56783 13.00371 9.86063
O 8.14293 10.6394 12.6707
H 8.93214 10.6394 13.26868
H 7.35372 10.6394 13.26868
O 8.14293 10.6394 9.48166
H 8.14293 11.4286 8.88368
H 8.14293 9.85019 8.88368
O 5.77862 13.00371 12.8897
H 5.77862 13.79291 12.29173
H 5.77862 12.2145 12.29173
O 8.14293 13.00371 7.77757
H 8.93214 13.00371 7.17959
H 7.35372 13.00371 7.17959
O 5.77862 10.6394 11.18561
H 4.98941 10.6394 10.58764
H 6.56783 10.6394 10.58764
O 5.77862 10.6394 14.37466
H 5.77862 11.4286 14.97263
H 5.77862 9.85019 14.97263
O 8.14293 13.00371 17.7827
H 8.14293 13.79291 18.38068
H 8.14293 12.2145 18.38068
O 5.77862 13.00371 16.07875
H 4.98941 13.00371 16.67672
H 6.56783 13.00371 16.67672
O 8.14293 10.6394 19.48679
H 8.93214 10.6394 20.08477
H 7.35372 10.6394 20.08477
O 8.14293 10.6394 16.29775
H 8.14293 11.4286 15.69977
H 8.14293 9.85019 15.69977
O 5.77862 13.00371 19.70579
H 5.77862 13.79291 19.10782
H 5.77862 12.2145 19.10782
O 8.14293 13.00371 14.59366
H 8.93214 13.00371 13.99568
H 7.35372 13.00371 13.99568
O 5.77862 10.6394 18.0017
H 4.98941 10.6394 17.40373
H 6.56783 10.6394 17.40373
O 10.50724 1.18216 0.74248
H 10.50724 1.97136 1.34045
H 10.50724 0.39295 1.34045
O 12.87155 3.54647 4.15052
H 12.87155 4.33567 4.7485
H 12.87155 2.75726 4.7485
O 10.50724 3.54647 2.44657
H 9.71803 3.54647 3.04454
H 11.29645 3.54647 3.04454
O 12.87155 1.18216 5.85461
H 13.66076 1.18216 6.45259
H 12.08234 1.18216 6.45259
O 12.87155 1.18216 2.66557
H 12.87155 1.97136 2.06759
H 12.87155 0.39295 2.06759
O 10.50724 3.54647 6.07361
H 10.50724 4.33567 5.47564
H 10.50724 2.75726 5.47564
O 12.87155 3.54647 0.96148
H 13.66076 3.54647 0.3635
H 12.08234 3.54647 0.3635
O 10.50724 1.18216 4.36952
H 9.71803 1.18216 3.77155
H 11.29645 1.18216 3.77155
O 10.50724 1.18216 7.55857
H 10.50724 1.97136 8.15654
H 10.50724 0.39295 8.15654
O 12.87155 3.54647 10.96661
H 12.87155 4.33567 11.56459
H 12.87155 2.75726 11.56459
O 10.50724 3.54647 9.26266
H 9.71803 3.54647 9.86063
H 11.29645 3.54647 9.86063
O 12.87155 1.18216 12.6707
H 13.66076 1.18216 13.26868
H 12.08234 1.18216 13.26868
O 12.87155 1.18216 9.48166
H 12.87155 1.97136 8.88368
H 12.87155 0.39295 8.88368
O 10.50724 3.54647 12.8897
H 10.50724 4.33567 12.29173
H 10.50724 2.75726 12.29173
O 12.87155 3.54647 7.77757
H 13.66076 3.54647 7.17959
H 12.08234 3.54647 7.17959
O 10.50724 1.18216 11.18561
H 9.71803 1.18216 10.58764
H 11.29645 1.18216 10.58764
O 10.50724 1.18216 14.37466
H 10.50724 1.97136 14.97263
H 10.50724 0.39295 14.97263
O 12.87155 3.54647 17.7827
H 12.87155 4.33567 18.38068
H 12.87155 2.75726 18.38068
O 10.50724 3.54647 16.07875
H 9.71803 3.54647 16.67672
H 11.29645 3.54647 16.67672
O 12.87155 1.18216 19.48679
H 13.66076 1.18216 20.08477
H 12.08234 1.18216 20.08477
O 12.87155 1.18216 16.29775
H 12.87155 1.97136 15.69977
H 12.87155 0.39295 15.69977
O 10.50724 3.54647 19.70579
H 10.50724 4.33567 19.10782
H 10.50724 2.75726 19.10782
O 12.87155 3.54647 14.59366
H 13.66076 3.54647 13.99568
H 12.08234 3.54647 13.99568
O 10.50724 1.18216 18.0017
H 9.71803 1.18216 17.40373
H 11.29645 1.18216 17.40373
O 10.50724 5.91078 0.74248
H 10.50724 6.69998 1.34045
H 10.50724 5.12157 1.34045
O 12.87155 8.27509 4.15052
H 12.87155 9.06429 4.7485
H 12.87155 7.48588 4.7485
O 10.50724 8.27509 2.44657
H 9.71803 8.27509 3.04454
H 11.29645 8.27509 3.04454
O 12.87155 5.91078 5.85461
H 13.66076 5.91078 6.45259
H 12.08234 5.91078 6.45259
O 12.87155 5.91078 2.66557
H 12.87155 6.69998 2.06759
H 12.87155 5.12157 2.06759
O 10.50724 8.27509 6.07361
H 10.50724 9.06429 5.47564
H 10.50724 7.48588 5.47564
O 12.87155 8.27509 0.96148
H 13.66076 8.27509 0.3635
H 12.08234 8.27509 0.3635
O 10.50724 5.91078 4.36952
H 9.71803 5.91078 3.77155
H 11.29645 5.91078 3.77155
O 10.50724 5.91078 7.55857
H 10.50724 6.69998 8.15654
H 10.50724 5.12157 8.15654
O 12.87155 8.27509 10.96661
H 12.87155 9.06429 11.56459
H 12.87155 7.48588 11.56459
O 10.50724 8.27509 9.26266
H 9.71803 8.27509 9.86063
H 11.29645 8.27509 9.86063
O 12.87155 5.91078 12.6707
H 13.66076 5.91078 13.26868
H 12.08234 5.91078 13.26868
O 12.87155 5.91078 9.48166
H 12.87155 6.69998 8.88368
H 12.87155 5.12157 8.88368
O 10.50724 8.27509 12.8897
H 10.50724 9.06429 12.29173
H 10.50724 7.48588 12.29173
O 12.87155 8.27509 7.77757
H 13.66076 8.27509 7.17959
H 12.08234 8.27509 7.17959
O 10.50724 5.91078 11.18561
H 9.71803 5.91078 10.58764
H 11.29645 5.91078 10.58764
O 10.50724 5.91078 14.37466
H 10.50724 6.69998 14.97263
H 10.50724 5.12157 14.97263
O 12.87155 8.27509 17.7827
H 12.87155 9.06429 18.38068
H 12.87155 7.48588 18.38068
O 10.50724 8.27509 16.07875
H 9.71803 8.27509 16.67672
H 11.29645 8.27509 16.67672
O 12.87155 5.91078 19.48679
H 13.66076 5.91078 20.08477
H 12.08234 5.91078 20.08477
O 12.87155 5.91078 16.29775
H 12.87155 6.69998 15.69977
H 12.87155 5.12157 15.69977
O 10.50724 8.27509 19.70579
H 10.50724 9.06429 19.10782
H 10.50724 7.48588 19.10782
O 12.87155 8.27509 14.59366
H 13.66076 8.27509 13.99568
H 12.08234 8.27509 13.99568
O 10.50724 5.91078 18.0017
H 9.71803 5.91078 17.40373
H 11.29645 5.91078 17.40373
O 10.50724 10.6394 0.74248
H 10.50724 11.4286 1.34045
H 10.50724 9.85019 1.34045
O 12.87155 13.00371 4.15052
H 12.87155 13.79291 4.7485
H 12.87155 12.2145 4.7485
O 10.50724 13.00371 2.44657
H 9.71803 13.00371 3.04454
H 11.29645 13.00371 3.04454
O 12.87155 10.6394 5.85461
H 13.66076 10.6394 6.45259
H 12.08234 10.6394 6.45259
O 12.87155 10.6394 2.66557
H 12.87155 11.4286 2.06759
H 12.87155 9.85019 2.06759
O 10.50724 13.00371 6.07361
H 10.50724 13.79291 5.47564
H 10.50724 12.2145 5.47564
O 12.87155 13.00371 0.96148
H 13.66076 13.00371 0.3635
H 12.08234 13.00371 0.3635
O 10.50724 10.6394 4.36952
H 9.71803 10.6394 3.77155
H 11.29645 10.6394 3.77155
O 10.50724 10.6394 7.55857
H 10.50724 11.4286 8.15654
H 10.50724 9.85019 8.15654
O 12.87155 13.00371 10.96661
H 12.87155 13.79291 11.56459
H 12.87155 12.2145 11.56459
O 10.50724 13.00371 9.26266
H 9.71803 13.00371 9.86063
H 11.29645 13.00371 9.86063
O 12.87155 10.6394 12.6707
H 13.66076 10.6394 13.26868
H 12.08234 10.6394 13.26868
O 12.87155 10.6394 9.48166
H 12.87155 11.4286 8.88368
H 12.87155 9.85019 8.88368
O 10.50724 13.00371 12.8897
H 10.50724 13.79291 12.29173
H 10.50724 12.2145 12.29173
O 12.87155 13.00371 7.77757
H 13.66076 13.00371 7.17959
H 12.08234 13.00371 7.17959
O 10.50724 10.6394 11.18561
H 9.71803 10.6394 10.58764
H 11.29645 10.6394 10.58764
O 10.50724 10.6394 14.37466
H 10.50724 11.4286 14.97263
H 10.50724 9.85019 14.97263
O 12.87155 13.00371 17.7827
H 12.87155 13.79291 18.38068
H 12.87155 12.2145 18.38068
O 10.50724 13.00371 16.07875
H 9.71803 13.00371 16.67672
H 11.29645 13.00371 16.67672
O 12.87155 10.6394 19.48679
H 13.66076 10.6394 20.08477
H 12.08234 10.6394 20.08477
O 12.87155 10.6394 16.29775
H 12.87155 11.4286 15.69977
H 12.87155 9.85019 15.69977
O 10.50724 13.00371 19.70579
H 10.50724 13.79291 19.10782
H 10.50724 12.2145 19.10782
O 12.87155 13.00371 14.59366
H 13.66076 13.00371 13.99568
H 12.08234 13.00371 13.99568
O 10.50724 10.6394 18.0017
H 9.71803 10.6394 17.40373
H 11.29645 10.6394 17.40373
