30
#Ice XV; PBE-D3; Brandenburg, Maas, and Grimme JCP 2015
H          1.98682        2.89601        0.72423
H          2.02298        1.34983        0.68947
H          2.02557        4.79098        2.26282
H          4.68277        2.17236        3.66297
H          2.75725        3.41301        2.69740
H          2.82002        0.90440        2.70546
H          1.28016        0.84455        2.72170
H          0.75559        2.86366        3.10165
H          3.27779        2.15027        4.47722
H          0.80940        2.12327        4.48426
H          3.80970        5.20766        4.29982
H          0.18931        5.23467        4.29278
H          5.07706        4.47838        2.37429
H          5.04090        6.02457        2.40904
H          5.03830        2.58341        0.83570
H          2.40473        5.18557        5.11406
H          4.30662        3.96139        0.40112
H          4.29239        0.37913        0.39306
H          5.83225        0.43899        0.37682
H          0.24312        4.49427        5.67538
O          2.01251        2.13366        0.07886
O          1.97348        3.79471        2.21830
O          3.68832        2.16727        3.57257
O          2.06008        0.42504        2.26770
O          0.31995        2.12694        3.61505
O          5.05137        5.24073        3.01965
O          5.09040        3.57968        0.88022
O          3.39918        5.19067        5.20446
O          0.67876        5.23099        5.16199
O          5.05233        0.85849        0.83081
