570

O       94.940800000   108.051000000    95.711300000
H       95.159600000   108.427000000    96.611600000
H       94.722100000   107.079000000    95.800600000
O      104.008000000   103.223000000   106.729000000
H      105.001000000   103.340000000   106.712000000
H      103.694000000   102.910000000   105.833000000
O       96.287700000   105.219000000   103.893000000
H       96.781000000   104.419000000   104.235000000
H       96.485600000   105.342000000   102.921000000
O      108.465000000    95.482000000    96.162200000
H      109.005000000    96.321100000    96.102900000
H      107.961000000    95.470200000    97.026200000
O      101.140000000   103.233000000   105.698000000
H      101.800000000   103.577000000   106.365000000
H      101.619000000   102.707000000   104.996000000
O       95.023600000   104.404000000    95.147300000
H       94.639700000   103.512000000    94.908900000
H       95.948400000   104.479000000    94.774200000
O       99.892200000   101.049000000    89.491300000
H      100.252000000   100.225000000    89.928900000
H       98.963000000   101.221000000    89.818100000
O       90.795300000   105.570000000   100.714000000
H       91.367500000   104.952000000   101.254000000
H       90.884800000   106.501000000   101.067000000
O      104.737000000   105.657000000    93.206800000
H      104.640000000   105.445000000    92.234300000
H      104.176000000   105.026000000    93.743000000
O       96.652200000    92.863600000    94.168600000
H       96.603500000    93.849000000    94.005100000
H       95.732400000    92.507100000    94.332700000
O       93.054300000   101.153000000   103.187000000
H       93.153500000   102.024000000   103.669000000
H       93.282100000   101.279000000   102.221000000
O      100.056000000   104.833000000    91.780500000
H      100.663000000   104.400000000    92.446900000
H       99.761600000   105.723000000    92.126900000
O      103.662000000   102.962000000    95.665500000
H      104.569000000   102.981000000    96.087800000
H      103.118000000   102.230000000    96.076400000
O      101.495000000    96.997200000    93.049900000
H      100.616000000    97.208900000    93.477800000
H      101.533000000    96.022200000    92.831100000
O       97.873900000   103.017000000   100.816000000
H       98.128600000   103.038000000    99.848800000
H       97.173800000   102.317000000   100.960000000
O      103.316000000   100.168000000   106.766000000
H      103.471000000    99.766300000   105.864000000
H      103.282000000   101.164000000   106.687000000
O      101.099000000   104.850000000    99.030700000
H      101.483000000   104.260000000    99.740500000
H      101.829000000   105.396000000    98.619700000
O      102.081000000    96.657000000   109.388000000
H      102.979000000    96.248200000   109.226000000
H      101.804000000    97.181300000   108.583000000
O       91.518900000    94.160500000    96.996800000
H       90.858400000    93.990100000    96.265500000
H       91.334100000    93.544800000    97.762900000
O       96.773600000   102.808000000   107.170000000
H       96.854200000   102.589000000   108.142000000
H       96.421400000   102.013000000   106.676000000
O      105.665000000    96.993900000   105.027000000
H      104.749000000    97.393500000   104.997000000
H      106.330000000    97.657600000   104.684000000
O       92.694200000    96.495000000   105.409000000
H       91.854100000    96.418200000   104.872000000
H       92.964700000    97.455900000   105.469000000
O      105.279000000    92.275800000   100.558000000
H      104.667000000    91.493800000   100.676000000
H      105.767000000    92.188100000    99.689400000
O      100.645000000   100.169000000    95.891500000
H      101.491000000   100.305000000    96.406200000
H       99.888700000   100.618000000    96.367800000
O       99.814000000   100.835000000   101.232000000
H       99.329200000    99.976800000   101.063000000
H       99.151600000   101.561000000   101.414000000
O       98.714000000    92.661100000    92.611600000
H       97.888000000    92.701500000    93.173800000
H       98.909100000    91.709600000    92.373700000
O       98.804000000    98.512200000    97.758100000
H       99.782100000    98.646900000    97.916700000
H       98.421800000    99.326500000    97.321300000
O      100.747000000   100.164000000   103.736000000
H      100.658000000   100.628000000   102.855000000
H      100.105000000    99.398600000   103.776000000
O       98.070300000    98.516900000   100.438000000
H       97.172800000    98.878600000   100.690000000
H       98.194000000    98.592200000    99.448100000
O       99.241500000   107.096000000   102.899000000
H       99.533400000   106.810000000   103.812000000
H       99.798300000   107.871000000   102.599000000
O       91.600600000   105.678000000    97.352000000
H       90.646300000   105.414000000    97.492500000
H       91.763000000   105.835000000    96.377800000
O      101.321000000    92.439600000    94.597100000
H      100.828000000    92.917700000    93.869600000
H      100.676000000    91.895200000    95.133600000
O       97.511000000   109.183000000    97.591000000
H       97.971100000   109.344000000    98.464100000
H       97.118900000   108.263000000    97.585400000
O       96.373500000    99.168100000   103.663000000
H       96.032600000    99.385200000   104.578000000
H       97.337900000    98.909800000   103.720000000
O       98.712300000   104.348000000   108.710000000
H       99.403100000   105.010000000   108.418000000
H       97.801400000   104.702000000   108.498000000
O       97.163000000   101.978000000   110.054000000
H       97.987900000   101.415000000   110.006000000
H       96.932400000   102.150000000   111.012000000
O       92.236600000    98.969600000    99.830200000
H       92.257200000    98.492300000   100.709000000
H       92.125400000    98.304300000    99.091900000
O      101.469000000    90.899100000   103.999000000
H      100.686000000    90.346600000   103.715000000
H      101.511000000    91.729400000   103.444000000
O       96.740700000   101.641000000    95.246600000
H       95.765200000   101.625000000    95.027600000
H       97.256100000   101.957000000    94.450300000
O      103.992000000    93.621500000   106.488000000
H      103.820000000    92.924200000   107.184000000
H      104.711000000    94.239300000   106.806000000
O       93.812300000    95.791400000    93.897200000
H       93.511100000    94.848700000    93.753200000
H       94.305800000    95.854800000    94.764600000
O       89.470000000    99.361200000    98.431100000
H       90.292400000    99.315700000    98.998300000
H       88.705900000    99.702200000    98.978600000
O      105.589000000   107.064000000   102.225000000
H      104.796000000   106.766000000   102.758000000
H      105.511000000   108.041000000   102.031000000
O       94.447800000    93.062900000    97.104400000
H       94.685200000    93.846500000    96.530300000
H       94.118000000    93.387100000    97.991100000
O      106.873000000   103.046000000    96.266300000
H      106.397000000   102.273000000    96.684800000
H      107.190000000   102.788000000    95.353900000
O       96.855700000    95.639100000   102.759000000
H       96.157300000    96.250200000   102.386000000
H       97.741700000    95.856700000   102.349000000
O       97.209000000    95.906800000    94.278900000
H       97.087400000    95.813100000    93.290800000
H       98.015300000    96.468800000    94.463700000
O       95.920800000   105.352000000   107.798000000
H       96.160800000   104.526000000   107.289000000
H       95.206400000   105.138000000   108.464000000
O       96.694100000    92.482900000   106.854000000
H       95.956100000    92.671300000   106.206000000
H       97.289200000    93.283600000   106.923000000
O       96.200200000   107.509000000    93.254400000
H       96.349100000   108.220000000    92.566600000
H       95.545500000   107.837000000    93.935600000
O       94.095500000   103.596000000    91.717900000
H       94.190700000   104.437000000    92.250100000
H       93.166800000   103.240000000    91.820800000
O      101.215000000   106.155000000   108.432000000
H      102.081000000   106.172000000   108.930000000
H      100.604000000   106.855000000   108.802000000
O      103.969000000    95.809900000   100.611000000
H      104.656000000    95.771500000   101.336000000
H      103.152000000    96.276300000   100.950000000
O      106.587000000   100.034000000   103.851000000
H      105.829000000   100.104000000   103.203000000
H      107.394000000   100.487000000   103.470000000
O       97.068600000    95.759300000    91.564500000
H       97.632500000    96.221500000    90.880200000
H       97.128400000    94.769800000    91.432600000
O      104.861000000    99.909100000   108.815000000
H      104.557000000    99.197600000   109.448000000
H      104.262000000    99.920800000   108.014000000
O       91.319000000    98.167900000    93.943800000
H       90.356900000    98.172700000    93.671200000
H       91.384800000    98.270900000    94.936300000
O       99.020900000   107.238000000    93.026200000
H       99.504100000   107.676000000    93.784200000
H       98.083500000   107.029000000    93.304900000
O       90.193900000   100.701000000   103.448000000
H       89.804200000   101.342000000   102.787000000
H       91.192000000   100.734000000   103.396000000
O       90.058900000   103.092000000   101.988000000
H       91.032300000   103.304000000   101.900000000
H       89.609400000   103.218000000   101.104000000
O      100.377000000    94.639000000    92.016300000
H      100.540000000    94.798900000    91.042700000
H       99.775700000    93.847800000    92.128000000
O       98.463200000   103.644000000   104.855000000
H       99.448900000   103.710000000   105.009000000
H       98.023000000   103.265000000   105.669000000
O      101.993000000   104.014000000    93.998500000
H      102.580000000   103.877000000    94.796800000
H      102.066000000   103.222000000    93.391700000
O       91.476100000   103.263000000    99.076600000
H       91.525700000   104.257000000    98.982100000
H       90.519400000   102.973000000    99.050700000
O       98.548000000   101.265000000    97.248600000
H       98.688900000   102.140000000    97.711000000
H       97.919900000   101.391000000    96.480800000
O      106.824000000   106.530000000    94.927200000
H      106.143000000   106.373000000    94.212400000
H      107.497000000   105.791000000    94.915300000
O      106.919000000   103.000000000   107.111000000
H      107.541000000   102.322000000   106.720000000
H      107.092000000   103.084000000   108.092000000
O       99.706100000    94.287900000   105.534000000
H       98.709100000    94.214400000   105.511000000
H      100.042000000    93.988200000   106.427000000
O      104.764000000   102.907000000   101.929000000
H      104.157000000   103.650000000   101.648000000
H      105.597000000   103.289000000   102.328000000
O      104.727000000    95.435700000    98.038700000
H      103.947000000    95.065800000    97.535100000
H      104.496000000    95.504800000    99.009000000
O      107.168000000   105.226000000   105.551000000
H      106.958000000   104.355000000   105.994000000
H      108.008000000   105.605000000   105.940000000
O      103.898000000    98.427900000    99.984500000
H      103.015000000    98.654900000    99.573700000
H      104.128000000    97.477300000    99.776100000
O      108.743000000   100.423000000    97.268200000
H      107.828000000   100.128000000    97.542100000
H      109.219000000    99.663600000    96.823800000
O      105.399000000   107.398000000   105.222000000
H      106.067000000   106.720000000   105.530000000
H      104.742000000   106.962000000   104.607000000
O       99.166600000    96.442100000   101.723000000
H       98.843200000    97.206600000   101.166000000
H       99.643900000    95.783700000   101.141000000
O      105.274000000    91.851900000    96.527100000
H      104.559000000    92.531300000    96.694100000
H      105.997000000    91.953700000    97.210400000
O       94.272300000   104.861000000    98.027200000
H       93.274400000   104.806000000    97.992700000
H       94.652300000   104.579000000    97.146100000
O      107.544000000    95.677300000    98.777200000
H      106.627000000    95.279200000    98.760300000
H      107.707000000    96.101300000    99.668000000
O       94.408300000   105.314000000   100.701000000
H       94.396800000   105.021000000    99.744600000
H       95.353500000   105.456000000   100.995000000
O      106.040000000    95.593700000   102.478000000
H      105.762000000    96.182200000   103.237000000
H      106.867000000    95.091200000   102.732000000
O      105.657000000   107.888000000    97.011600000
H      106.263000000   107.605000000    97.755200000
H      106.001000000   107.526000000    96.145200000
O      108.567000000   105.171000000    96.735500000
H      108.103000000   105.979000000    97.098700000
H      107.892000000   104.460000000    96.538400000
O      102.891000000   100.842000000    97.477600000
H      103.837000000   100.662000000    97.209700000
H      102.868000000   101.166000000    98.423400000
O      103.433000000    90.169600000   100.821000000
H      103.430000000    90.067400000    99.826700000
H      103.713000000    89.307600000   101.244000000
O       95.581400000    99.190100000   109.061000000
H       95.519500000    98.214400000   108.851000000
H       96.538200000    99.438600000   109.211000000
O      106.874000000    99.683900000   106.428000000
H      106.236000000   100.310000000   106.876000000
H      106.818000000    99.803900000   105.436000000
O      107.589000000   103.376000000   102.668000000
H      107.461000000   104.111000000   103.335000000
H      107.934000000   103.760000000   101.812000000
O       96.227200000   100.990000000   101.698000000
H       96.148800000   100.422000000   102.517000000
H       95.313600000   101.237000000   101.375000000
O      100.171000000    93.760200000   108.174000000
H      101.012000000    94.057500000   108.627000000
H      100.248000000    92.793200000   107.930000000
O       98.181300000    98.144000000    89.895700000
H       97.668700000    97.892000000    89.074800000
H       99.138100000    97.874500000    89.787000000
O      107.826000000    96.984100000   101.113000000
H      108.466000000    97.497100000   101.685000000
H      107.058000000    96.670200000   101.672000000
O       92.639000000    96.955600000    97.829000000
H       93.628900000    97.092800000    97.866000000
H       92.443100000    96.008400000    97.575100000
O       95.278100000    97.169000000    98.965800000
H       95.144800000    97.377000000    99.934800000
H       95.587900000    97.991100000    98.488100000
O      100.904000000    98.618600000    90.342100000
H      101.764000000    98.307000000    89.937000000
H      100.795000000    98.208600000    91.247600000
O       98.864800000    98.222500000   103.917000000
H       98.949800000    97.463000000   103.272000000
H       99.054800000    97.896400000   104.843000000
O      104.578000000   100.035000000   101.952000000
H      104.419000000   101.011000000   101.802000000
H      104.206000000    99.514900000   101.184000000
O      102.027000000   106.876000000   101.138000000
H      102.200000000   106.695000000   100.170000000
H      101.515000000   107.729000000   101.232000000
O      102.429000000   104.060000000   101.348000000
H      101.757000000   103.665000000   101.974000000
H      102.209000000   105.021000000   101.185000000
O      109.444000000   101.526000000    99.560200000
H      109.322000000   101.267000000    98.601900000
H      110.317000000   102.000000000    99.669500000
O       96.798000000    93.944200000   100.568000000
H       97.508200000    94.486700000   100.119000000
H       96.982400000    93.900400000   101.550000000
O      107.307000000   103.626000000    93.102800000
H      107.869000000   103.661000000    92.276200000
H      106.452000000   104.121000000    92.946000000
O       94.666100000    97.581600000    91.541900000
H       95.649100000    97.542000000    91.721100000
H       94.167900000    97.554500000    92.408600000
O      108.101000000   103.927000000    99.741400000
H      108.585000000   103.064000000    99.882900000
H      108.116000000   104.162000000    98.769500000
O       97.573600000    90.646500000    95.915700000
H       98.452100000    91.083600000    96.108400000
H       96.963500000    91.304700000    95.474600000
O       95.118700000    97.700600000   101.797000000
H       94.171300000    97.423600000   101.957000000
H       95.377300000    98.403200000   102.460000000
O       99.231100000    93.154200000   102.821000000
H       99.331300000    93.817000000   103.563000000
H      100.104000000    93.053400000   102.344000000
O      103.395000000    93.763800000    96.088800000
H      102.541000000    93.361100000    95.758700000
H      103.753000000    94.395700000    95.401500000
O       93.149800000    92.909400000   102.979000000
H       92.166700000    92.808200000   103.131000000
H       93.553600000    92.012100000   102.800000000
O      103.867000000    98.228800000    93.492200000
H      103.007000000    97.732700000    93.371700000
H      103.971000000    98.898600000    92.757000000
O       98.016400000    94.880900000   109.432000000
H       98.890100000    94.595500000   109.038000000
H       97.874600000    94.412000000   110.304000000
O       94.709400000    92.817100000   105.124000000
H       94.473700000    92.874800000   104.154000000
H       94.555600000    93.704900000   105.558000000
O      107.787000000    94.098100000   104.662000000
H      107.740000000    93.967700000   105.653000000
H      108.700000000    94.418200000   104.411000000
O       99.725400000   101.618000000   108.746000000
H       99.296300000   102.517000000   108.650000000
H      100.719000000   101.725000000   108.777000000
O      105.654000000   100.606000000    97.050900000
H      105.817000000    99.917100000    96.344600000
H      105.599000000   100.160000000    97.944500000
O       98.708200000   103.752000000    98.244300000
H       98.397100000   104.234000000    97.425400000
H       99.598500000   104.111000000    98.524400000
O       93.574900000   105.539000000   104.514000000
H       93.322000000   106.507000000   104.525000000
H       94.568500000   105.454000000   104.587000000
O      104.529000000    95.238500000    94.088100000
H      104.552000000    94.923200000    93.139400000
H      104.087000000    96.134100000    94.131500000
O      100.150000000   108.297000000    95.202800000
H      101.071000000   108.189000000    95.577600000
H       99.689000000   109.055000000    95.663400000
O       97.590800000    90.988100000   102.432000000
H       96.888100000    91.054500000   101.724000000
H       98.094000000    91.850700000   102.484000000
O       95.933300000   100.069000000   106.486000000
H       95.896800000    99.719700000   107.422000000
H       96.887400000   100.192000000   106.213000000
O       97.164700000    94.924300000   105.416000000
H       96.958600000    95.152200000   104.464000000
H       96.312500000    94.858500000   105.935000000
O       97.960300000    99.738400000    92.323200000
H       98.025100000    99.203100000    91.481000000
H       97.432100000   100.570000000    92.149900000
O       95.964200000   107.132000000    98.369800000
H       96.229400000   107.195000000    99.332000000
H       95.398600000   106.319000000    98.232100000
O      103.231000000   106.520000000   103.603000000
H      102.896000000   106.662000000   102.672000000
H      102.458000000   106.505000000   104.237000000
O       92.780100000    95.010400000   101.424000000
H       92.910900000    94.266600000   102.079000000
H       93.220200000    94.772800000   100.558000000
O       99.794600000    91.488300000   100.023000000
H      100.445000000    92.220600000   100.224000000
H       98.904700000    91.885300000    99.798800000
O      106.052000000    98.653800000    95.236000000
H      106.528000000    97.778800000    95.148400000
H      105.747000000    98.958900000    94.333900000
O       98.547200000   109.727000000   100.061000000
H       98.227700000   109.627000000   101.003000000
H       98.884800000   110.658000000    99.920200000
O       98.521800000    99.296300000   109.570000000
H       99.206400000    98.567900000   109.543000000
H       98.932100000   100.151000000   109.251000000
O      109.829000000    98.425800000   102.265000000
H      109.713000000    99.410200000   102.397000000
H      110.637000000    98.258700000   101.699000000
O       99.468000000   105.283000000    95.690500000
H      100.395000000   104.911000000    95.651600000
H       99.511900000   106.279000000    95.772300000
O      103.065000000   106.418000000    98.404100000
H      102.945000000   107.087000000    97.670300000
H      103.919000000   106.605000000    98.888900000
O      100.125000000   101.870000000    92.894300000
H       99.428600000   101.298000000    92.459700000
H       99.896600000   101.996000000    93.859700000
O       92.131300000    97.642300000   102.177000000
H       91.317000000    97.791400000   102.738000000
H       92.266500000    96.661000000   102.040000000
O      102.160000000    94.349500000    98.747200000
H      102.527000000    93.534300000    98.299300000
H      102.436000000    94.354600000    99.708300000
O      101.909000000    92.717000000   101.661000000
H      102.638000000    93.177700000   102.168000000
H      102.284000000    91.918600000   101.190000000
O      104.610000000   109.586000000   101.261000000
H      105.151000000   109.994000000   100.525000000
H      103.657000000   109.507000000   100.970000000
O       93.189700000    99.957300000    93.042600000
H       92.585400000    99.291400000    93.479900000
H       93.929500000    99.477100000    92.571400000
O      103.154000000    90.698200000    98.074400000
H      103.907000000    90.931900000    97.459700000
H      102.876000000    89.750600000    97.916200000
O       97.613900000   109.323000000   102.431000000
H       98.079300000   108.566000000   102.889000000
H       97.464100000   110.066000000   103.084000000
O      101.195000000   106.928000000   105.456000000
H      101.206000000   106.434000000   106.325000000
H      100.871000000   107.862000000   105.607000000
O       99.010200000   108.601000000   105.833000000
H       98.685800000   109.522000000   105.616000000
H       98.227700000   107.986000000   105.927000000
O       97.894300000    93.636500000    97.704600000
H       96.921800000    93.462300000    97.549500000
H       98.231600000    94.279000000    97.016600000
O       98.771600000   100.739000000   106.197000000
H       99.398100000   101.178000000   106.840000000
H       99.297200000   100.231000000   105.514000000
O       96.613800000   101.997000000    91.481900000
H       96.731600000   102.040000000    90.489800000
H       96.070000000   102.779000000    91.787000000
O       94.443800000    94.651000000    99.373500000
H       95.293900000    94.301900000    99.767700000
H       94.463600000    95.650800000    99.370600000
O      102.486000000   102.214000000   109.341000000
H      103.154000000   101.634000000   109.808000000
H      102.963000000   102.838000000   108.721000000
O      107.068000000    94.157700000    94.350100000
H      106.145000000    94.517400000    94.482900000
H      107.659000000    94.474800000    95.091700000
O      103.454000000    97.589900000    96.421800000
H      103.885000000    98.135100000    95.702500000
H      104.142000000    97.009800000    96.857500000
O       97.663000000   103.755000000    93.716600000
H       97.878200000   104.678000000    94.035900000
H       98.124000000   103.587000000    92.845200000
O       94.716800000    95.339500000   106.730000000
H       94.731500000    95.780000000   107.628000000
H       94.004900000    95.757200000   106.165000000
O      100.740000000   109.200000000   101.978000000
H      100.530000000   109.974000000   102.574000000
H      100.204000000   109.272000000   101.137000000
O      108.674000000   100.948000000   102.346000000
H      108.614000000   100.958000000   101.348000000
H      108.378000000   101.833000000   102.706000000
O      104.383000000   100.426000000    91.793300000
H      103.614000000   101.043000000    91.624700000
H      105.239000000   100.940000000    91.747600000
O       93.470000000    98.898100000   105.386000000
H       93.191400000    99.414300000   104.576000000
H       94.083300000    99.457800000   105.943000000
O       92.500500000   101.454000000    96.905900000
H       92.032300000   101.750000000    97.738200000
H       92.354500000   100.473000000    96.773000000
O       95.630300000    99.996600000    98.245400000
H       96.540400000   100.410000000    98.268900000
H       94.982900000   100.638000000    97.834500000
O       90.496000000   102.366000000    95.291300000
H       90.029900000   101.503000000    95.098400000
H       91.354600000   102.182000000    95.769700000
O       91.348100000    98.770100000    96.465200000
H       91.788200000    98.003500000    96.932700000
H       90.438200000    98.918700000    96.852400000
O      103.597000000    98.452900000    89.806500000
H      103.967000000    99.211600000    90.342800000
H      104.290000000    97.737300000    89.719500000
O      103.773000000    93.788800000   103.794000000
H      103.865000000    93.694200000   104.785000000
H      104.676000000    93.734600000   103.368000000
O      105.714000000   105.895000000    99.861500000
H      105.704000000   106.458000000   100.688000000
H      106.647000000   105.580000000    99.685100000
O       99.505700000    94.600000000    99.762000000
H       98.915000000    94.230400000    99.044800000
H      100.455000000    94.596700000    99.446700000
O       93.723900000   101.482000000   100.592000000
H       93.285300000   102.174000000   100.019000000
H       93.374700000   100.577000000   100.347000000
O      106.076000000    95.325200000   107.319000000
H      106.515000000    95.923900000   107.990000000
H      105.830000000    95.856400000   106.509000000
O       92.515400000   104.356000000   102.399000000
H       92.834800000   104.698000000   103.283000000
H       93.169800000   104.611000000   101.687000000
O      102.360000000   101.551000000    99.964500000
H      102.675000000   102.370000000   100.444000000
H      101.556000000   101.180000000   100.430000000
O       99.128800000    95.980100000    96.602100000
H       99.037300000    96.941600000    96.861200000
H      100.097000000    95.729200000    96.588100000
O       95.836300000    91.031200000   100.005000000
H       95.675500000    91.876800000    99.496200000
H       95.236400000    91.004200000   100.805000000
O      101.263000000    91.444200000   106.688000000
H      101.513000000    91.381800000   105.722000000
H      100.934000000    90.554900000   107.005000000
O      100.395000000    90.892200000    97.253800000
H       99.729500000    90.724800000    97.981200000
H      101.269000000    91.162100000    97.657400000
O      103.544000000    99.038500000   104.412000000
H      104.182000000    99.184200000   103.655000000
H      102.605000000    99.102500000   104.073000000
O       99.482600000    98.237100000    94.256600000
H       98.968300000    98.764500000    93.580400000
H      100.018000000    98.859300000    94.827300000
O       97.111700000   105.889000000   101.284000000
H       97.802500000   106.403000000   101.792000000
H       97.487600000   105.002000000   101.014000000
O      103.133000000   101.981000000   104.535000000
H      103.581000000   102.216000000   103.673000000
H      102.678000000   101.095000000   104.444000000
O      101.858000000    95.959800000   104.565000000
H      102.487000000    95.187200000   104.478000000
H      100.951000000    95.624200000   104.818000000
O      102.969000000   107.814000000    95.734000000
H      102.874000000   108.030000000    94.762400000
H      103.931000000   107.884000000    95.998000000
O      106.341000000    99.341900000    99.395500000
H      105.471000000    98.930500000    99.666400000
H      107.040000000    99.120000000   100.075000000
O      101.744000000    97.726000000   106.886000000
H      102.077000000    97.166200000   106.128000000
H      102.140000000    98.642000000   106.824000000
O       95.154200000    95.840000000    96.171700000
H       95.973800000    95.821000000    95.599100000
H       95.413800000    96.026700000    97.119200000
O      101.836000000    97.446700000   102.110000000
H      100.860000000    97.397400000   101.898000000
H      101.991000000    97.133400000   103.047000000
O      101.665000000    98.316100000    98.319400000
H      101.904000000    99.233800000    98.002000000
H      102.224000000    97.640900000    97.837700000
O       99.984700000   103.272000000   102.307000000
H       99.640700000   103.104000000   103.231000000
H       99.216500000   103.453000000   101.693000000
O       92.533800000   103.109000000   105.488000000
H       92.597100000   102.910000000   106.466000000
H       93.148200000   103.865000000   105.261000000
O      102.281000000   109.990000000    99.237400000
H      101.804000000   109.989000000    98.358600000
H      101.707000000   110.430000000    99.927700000
O       94.116000000   101.973000000    94.712100000
H       93.626400000   101.369000000    94.082700000
H       93.593800000   102.064000000    95.560000000
O       96.662300000   107.245000000   105.890000000
H       96.449100000   106.611000000   105.147000000
H       96.367500000   106.851000000   106.761000000
O      102.243000000   102.219000000    91.223000000
H      102.226000000   102.797000000    90.406800000
H      101.309000000   102.079000000    91.551900000
O       98.710500000    97.265300000   106.544000000
H       99.310200000    97.423100000   107.329000000
H       98.159900000    96.446100000   106.705000000
O      107.249000000   100.841000000    92.400700000
H      108.071000000   100.428000000    92.792400000
H      107.280000000   101.832000000    92.530300000
