24
s4 cube
O      1.99300294     -.06309578     1.47601417
O     -1.99300294      .06309578     1.47601417
O      -.06309578    -1.99300294    -1.47601417
O       .06309578     1.99300294    -1.47601417
H      2.69237274     -.27127359     2.10172647
H     -2.69237274      .27127359     2.10172647
H      -.27127359    -2.69237274    -2.10172647
H       .27127359     2.69237274    -2.10172647
H      1.34051465     -.80936971     1.52652079
H     -1.34051465      .80936971     1.52652079
H      -.80936971    -1.34051465    -1.52652079
H       .80936971     1.34051465    -1.52652079
O      1.89520992      .06259188    -1.35912522
O     -1.89520992     -.06259188    -1.35912522
O       .06259188    -1.89520992     1.35912522
O      -.06259188     1.89520992     1.35912522
H      1.38132939     -.74888632    -1.51574883
H     -1.38132939      .74888632    -1.51574883
H      -.74888632    -1.38132939     1.51574883
H       .74888632     1.38132939     1.51574883
H      2.13830549      .01009435     -.41812902
H     -2.13830549     -.01009435     -.41812902
H       .01009435    -2.13830549      .41812902
H      -.01009435     2.13830549      .41812902
24
d2d cube
O     -1.46966769     1.46966769     1.34326600
O      1.46966769    -1.46966769     1.34326600
O      1.46966769     1.46966769    -1.34326600
O     -1.46966769    -1.46966769    -1.34326600
O     -1.36565412     1.36565412    -1.32090835
O      1.36565412    -1.36565412    -1.32090835
O      1.36565412     1.36565412     1.32090835
O     -1.36565412    -1.36565412     1.32090835
H     -2.10464162     2.10464162     1.68605609
H      2.10464162    -2.10464162     1.68605609
H      2.10464162     2.10464162    -1.68605609
H     -2.10464162    -2.10464162    -1.68605609
H     -1.52398844     1.52398844      .35383543
H      1.52398844    -1.52398844      .35383543
H      1.52398844     1.52398844     -.35383543
H     -1.52398844    -1.52398844     -.35383543
H      1.51043211      .42340972     1.51629003
H     -1.51043211     -.42340972     1.51629003
H       .42340972    -1.51043211    -1.51629003
H      -.42340972     1.51043211    -1.51629003
H     -1.51043211      .42340972    -1.51629003
H      1.51043211     -.42340972    -1.51629003
H      -.42340972    -1.51043211     1.51629003
H       .42340972     1.51043211     1.51629003
24
-610.69989936 -- tetrahedrally coordinated solvated dimer
O   0.02277885 -0.00642763 -1.36056841
H  -0.35350277  0.81470964 -1.71809042
H   0.94041503 -0.02947048 -1.68218566
O   0.03595643  0.03255532  1.39201696
H   0.01870483  0.00391823  0.41419927
H  -0.43363577 -0.76623765  1.68057286
O   2.663003   -0.05776818 -2.30923264
H   3.35691317  0.59089219 -2.16129158
H   3.06006981 -0.74071521 -2.85701841
O  -1.36962325 -2.34584098 -2.28008022
H  -2.10685088 -2.02443086 -2.80480773
H  -0.92024782 -1.53860689 -1.9775137
O  -1.28291767  2.31025356 -2.33233582
H  -2.20040577  2.45386539 -2.08176456
H  -1.05242828  3.0590831  -2.88888718
O  -1.26123074  2.3769768   2.310626
H  -1.22530895  2.33442905  3.2692117
H  -0.81289113  1.56242053  2.01759024
O   2.71148056  0.00580992  2.32264346
H   2.79059137  0.81862817  2.82818407
H   1.79236635  0.0200714   1.99876032
O  -1.3313117  -2.24984041  2.37512133
H  -0.95436794 -2.93229834  2.93740311
H  -2.24454279 -2.51205777  2.22985758
