126

O  18.2348  8.9856  11.5072
H  17.7565  9.7732  11.1692
H  17.7504  8.2016  11.1696
O  20.8325  9.0066  10.5904
H  20.8043  8.9992  9.6093
H  19.8993  8.9993  10.8942
O  16.9182  6.7461  10.5905
H  15.9831  6.7461  10.8887
H  16.8959  6.7461  9.6093
O  18.1162  9.0069  14.26
H  19.0494  8.9994  14.5638
H  18.1444  8.9994  13.2789
O  16.9109  11.186  10.5153
H  17.3502  11.9967  10.8515
H  15.9891  11.2109  10.8515
O  22.1296  11.2527  11.5072
H  21.6452  12.0367  11.1696
H  21.6513  10.465  11.1692
O  22.1138  6.746  11.5076
H  21.6355  5.9602  11.1654
H  21.6356  7.5318  11.1655
O  20.714  8.9856  15.1768
H  21.1922  9.7732  14.8388
H  21.1984  8.2016  14.8392
O  16.835  6.7462  15.1772
H  17.3133  7.532  14.835
H  17.3133  5.9604  14.835
O  16.899  11.299  15.1768
H  17.342  10.491  14.8388
H  15.9778  11.2715  14.8392
O  18.2347  4.5065  11.5072
H  17.7503  5.2905  11.1696
H  17.7564  3.7189  11.1692
O  14.3136  11.2067  11.4318
H  14.2951  11.2239  12.413
H  13.84  12.0124  11.1319
O  14.2968  6.6994  11.4317
H  13.836  7.5125  11.1318
H  14.2912  6.724  12.4129
O  20.714  8.9856  7.8376
H  21.1922  9.7732  7.4996
H  21.1984  8.2016  7.5
O  16.9151  6.7924  7.8375
H  17.3518  5.9808  7.4999
H  15.9939  6.772  7.4995
O  16.8457  11.299  7.7625
H  17.312  10.4913  7.4565
H  16.861  11.2725  8.7435
O  18.1917  13.4456  11.4317
H  18.1861  13.4702  12.4129
H  17.7309  14.2586  11.1318
O  13.016  4.4398  10.5153
H  13.4553  5.2506  10.8515
H  12.0943  4.4648  10.8515
O  22.1112  6.7919  14.2599
H  21.6382  5.9875  14.5637
H  22.0907  6.7712  13.2788
O  16.9377  2.2605  10.5904
H  16.9094  2.2531  9.6093
H  16.0044  2.2531  10.8942
O  24.6813  6.7923  10.5147
H  25.1253  5.986  10.8554
H  23.7613  6.7667  10.8557
O  20.8058  4.5322  10.5148
H  21.2436  3.7227  10.8559
H  19.8855  4.5137  10.8555
O  14.3215  6.7919  6.9206
H  13.8484  5.9875  7.2245
H  14.301  6.7712  5.9396
O  16.8575  11.2784  17.9299
H  16.8687  11.2592  16.9486
H  17.3251  10.4686  18.228
O  18.1161  4.4854  6.9208
H  18.1443  4.4928  5.9397
H  19.0493  4.4929  7.2246
O  14.3279  11.2322  14.1845
H  13.8456  10.4483  14.5255
H  13.8517  12.0199  14.5251
O  13.0234  13.4923  10.5905
H  13.001  13.4923  9.6093
H  12.0882  13.4922  10.8887
O  20.7531  9.0525  17.9296
H  20.7608  9.0243  16.9485
H  21.2134  8.2406  18.2334
O  22.0306  6.7461  6.921
H  22.9658  6.7461  7.2191
H  22.0529  6.7461  5.9397
O  18.2425  13.4922  14.1849
H  17.76  12.7064  14.521
H  17.76  14.2781  14.521
O  22.0904  11.1857  14.26
H  22.0827  11.2139  13.2789
H  21.6302  11.9977  14.5638
O  12.9628  8.9597  10.5907
H  12.9739  8.9791  9.6095
H  13.4303  9.7696  10.8888
O  20.8131  13.4923  10.5905
H  20.7908  13.4923  9.6093
H  19.878  13.4922  10.8887
O  14.2478  11.186  6.8458
H  13.8086  11.9968  7.1819
H  15.1696  11.211  7.1819
O  24.7007  11.2784  10.5148
H  25.1385  10.4688  10.8559
H  23.7804  11.2598  10.8555
O  18.2164  13.5381  6.9206
H  17.7433  12.7336  7.2245
H  18.1958  13.5173  5.9396
O  22.0376  11.186  6.8458
H  22.9594  11.211  7.1819
H  21.5984  11.9968  7.1819
O  18.1428  9.0525  6.8458
H  19.0646  9.0275  7.1819
H  17.7035  8.2417  7.1819
O  16.9377  15.7528  10.5904
H  16.0044  15.7454  10.8942
H  16.9094  15.7454  9.6093
O  16.8376  6.792  17.9294
H  17.3106  5.9874  18.2333
H  16.8582  6.7712  16.9484
O  14.2676  6.6999  14.1844
H  15.1876  6.7256  14.5254
H  13.8235  7.5061  14.525
O  18.1961  4.5323  14.2603
H  18.185  4.513  13.2791
H  17.7286  3.7225  14.5584
