51

O  18.2348  8.9856  11.5072
H  17.7565  9.7732  11.1692
H  17.7504  8.2016  11.1696
O  20.8325  9.0066  10.5904
H  20.8043  8.9992  9.6093
H  19.8993  8.9993  10.8942
O  16.9182  6.7461  10.5905
H  15.9831  6.7461  10.8887
H  16.8959  6.7461  9.6093
O  18.1162  9.0069  14.26
H  19.0494  8.9994  14.5638
H  18.1444  8.9994  13.2789
O  16.9109  11.186  10.5153
H  17.3502  11.9967  10.8515
H  15.9891  11.2109  10.8515
O  22.1296  11.2527  11.5072
H  21.6452  12.0367  11.1696
H  21.6513  10.465  11.1692
O  22.1138  6.746  11.5076
H  21.6355  5.9602  11.1654
H  21.6356  7.5318  11.1655
O  20.714  8.9856  15.1768
H  21.1922  9.7732  14.8388
H  21.1984  8.2016  14.8392
O  16.835  6.7462  15.1772
H  17.3133  7.532  14.835
H  17.3133  5.9604  14.835
O  16.899  11.299  15.1768
H  17.342  10.491  14.8388
H  15.9778  11.2715  14.8392
O  18.2347  4.5065  11.5072
H  17.7503  5.2905  11.1696
H  17.7564  3.7189  11.1692
O  14.3136  11.2067  11.4318
H  14.2951  11.2239  12.413
H  13.84  12.0124  11.1319
O  14.2968  6.6994  11.4317
H  13.836  7.5125  11.1318
H  14.2912  6.724  12.4129
O  20.714  8.9856  7.8376
H  21.1922  9.7732  7.4996
H  21.1984  8.2016  7.5
O  16.9151  6.7924  7.8375
H  17.3518  5.9808  7.4999
H  15.9939  6.772  7.4995
O  16.8457  11.299  7.7625
H  17.312  10.4913  7.4565
H  16.861  11.2725  8.7435
O  18.1917  13.4456  11.4317
H  18.1861  13.4702  12.4129
H  17.7309  14.2586  11.1318
